
Transcript file has been opened in append mode. Time stamp=02/01/19 16:54:31.

Build Time: Apr 11 2017 17:59:01 
Executable Path: C:/PROGRA~1/ANSYSI~1/v181/fluent/ntbin/win64/fluent.exe

-------------------------------------------------------------------------------
ID    Hostname        Core  O.S.         PID    Vendor                   
-------------------------------------------------------------------------------
n4    open-labM1-013  5/4  Windows-x64  10820  Intel(R) Xeon(R) E5-2698 
n3    open-labM1-013  4/4  Windows-x64  5440   Intel(R) Xeon(R) E5-2698 
n2    open-labM1-013  3/4  Windows-x64  11844  Intel(R) Xeon(R) E5-2698 
n1    open-labM1-013  2/4  Windows-x64  9288   Intel(R) Xeon(R) E5-2698 
n0*   open-labM1-013  1/4  Windows-x64  9244   Intel(R) Xeon(R) E5-2698 
host  open-labM1-013       Windows-x64  8476   Intel(R) Xeon(R) E5-2698 

MPI Option Selected: ibmmpi
Selected system interconnect: default
-------------------------------------------------------------------------------
Note: Rank = 0: Process affinity not being set pcount > npes
Note: Rank = 1: Process affinity not being set pcount > npes
Note: Rank = 4: Process affinity not being set pcount > npes
Note: Rank = 2: Process affinity not being set pcount > npes
Note: Rank = 3: Process affinity not being set pcount > npes
Reading "\"| gunzip -c \\"\\winfiles.wincoe.coe.neu.edu\cifs.homedir\Win10Files\Documents\ANSYS SIMS\Axial Fan Simulation_files\dp0\FFF\Fluent\FFF-Setup-Output.cas.gz\\"\""...
Buffering for file scan...



  418046 tetrahedral cells, zone  4, binary.
   78143 tetrahedral cells, zone  5, binary.
  418046 cell partition ids, zone  4, 5 partitions, binary.
   78143 cell partition ids, zone  5, 5 partitions, binary.
      33 mixed wall faces, zone 14, binary.
     140 mixed wall faces, zone 13, binary.
   21489 mixed interior faces, zone  7, binary.
   22892 triangular wall faces, zone  1, binary.
  819880 triangular interior faces, zone  2, binary.
  152779 triangular interior faces, zone  3, binary.
    4489 triangular wall faces, zone  8, binary.
     312 triangular velocity-inlet faces, zone  9, binary.
     123 triangular pressure-outlet faces, zone 10, binary.
    9532 triangular interface faces, zone 11, binary.
    2090 triangular interface faces, zone 12, binary.
      33 interface face parents, binary.
     140 interface face parents, binary.
   21489 interface face parents, binary.
      33 interface metric data, zone 14, binary.
     140 interface metric data, zone 13, binary.
   21489 interface metric data, zone  7, binary.
   92834 nodes, binary.
   92834 node flags, binary.

Building...
     mesh
	distributing mesh
		parts.....,
		faces.....,
		nodes.....,
		cells.....,
        bandwidth reduction using Reverse Cuthill-McKee: 99357/1902 = 52.2382
     materials,
     interface,
     domains,
	mixture
     zones,
	contact_region-trg
	contact_region-src
	outlet
	inlet
	wall
	interior-enclosure
	interior-fan
	wall-fan
	interior-7
	wall-13
	wall-14
	enclosure
	fanSliding interface contact_region already defined, skipped.

     mesh interfaces,Setting fan (mixture) ... Done.
Setting enclosure (mixture) ... Done.
 Setting zone id of fan to 4.
 Setting zone id of enclosure to 5.
 Setting zone id of wall-14 to 14.
 Setting zone id of wall-13 to 13.
 Setting zone id of interior-7 to 7.
 Setting zone id of wall-fan to 1.
 Setting zone id of interior-fan to 2.
 Setting zone id of interior-enclosure to 3.
 Setting zone id of wall to 8.
 Setting zone id of inlet to 9.
 Setting zone id of outlet to 10.
 Setting zone id of contact_region-src to 11.
 Setting zone id of contact_region-trg to 12.
Done.
Setting fan (mixture) ... Done.
Setting enclosure (mixture) ... Done.
Setting wall-14 (mixture) ... Done.
Setting wall-13 (mixture) ... Done.
Setting interior-7 (mixture) ... Done.
Setting wall-fan (mixture) ... Done.
Setting interior-fan (mixture) ... Done.
Setting interior-enclosure (mixture) ... Done.
Setting wall (mixture) ... Done.
Setting inlet (mixture) ... Done.
Setting outlet (mixture) ... Done.
Setting contact_region-src (mixture) ... Done.
Setting contact_region-trg (mixture) ... Done.

     parallel,
Done.

Preparing mesh for display...
Note: zone-surface: cannot create surface from sliding interface zone.
Creating empty surface.
Note: zone-surface: cannot create surface from sliding interface zone.
Creating empty surface.
Done.

Setting Post Processing and Surfaces information ...	 Done.
Initialization based on settings...
Writing "| gzip -2cf > FFF-6.cas.gz"...
Writing temporary file C:\\Users\\emellusi\\AppData\\Local\\Temp\\flntgz-84762 ...
  418046 tetrahedral cells, zone  4, binary.
   78143 tetrahedral cells, zone  5, binary.
  418046 cell partition ids, zone  4, 5 partitions, binary.
   78143 cell partition ids, zone  5, 5 partitions, binary.
      33 mixed wall faces, zone 14, binary.
     140 mixed wall faces, zone 13, binary.
   21489 mixed interior faces, zone  7, binary.
   22892 triangular wall faces, zone  1, binary.
  819880 triangular interior faces, zone  2, binary.
  152779 triangular interior faces, zone  3, binary.
    4489 triangular wall faces, zone  8, binary.
     312 triangular velocity-inlet faces, zone  9, binary.
     123 triangular pressure-outlet faces, zone 10, binary.
    9532 triangular interface faces, zone 11, binary.
    2090 triangular interface faces, zone 12, binary.
      33 wall parent pointers, zone 14, binary.
     140 wall parent pointers, zone 13, binary.
   21489 interior parent pointers, zone  7, binary.
      33 interface metric data, zone 14, binary.
     140 interface metric data, zone 13, binary.
   21489 interface metric data, zone  7, binary.
   92834 nodes, binary.
   92834 node flags, binary.
Done.

Writing "| gzip -2cf > FFF-6-00000.dat.gz"...
Writing temporary file C:\\Users\\emellusi\\AppData\\Local\\Temp\\flntgz-84763 ...
Done.


Updating solution at time level N... done.
  iter  continuity  x-velocity  y-velocity  z-velocity           k     epsilon     time/iter
     1  1.0000e+00  2.3577e-02  5.3433e-03  2.3510e-02  1.8488e-01  1.7718e+01  0:01:19   79
     2  1.0000e+00  2.3206e-02  1.3005e-02  2.3446e-02  5.7580e-02  2.1902e-01  0:01:18   78
     3  6.1202e-01  1.0877e-02  8.4694e-03  1.0868e-02  2.9861e-02  7.4715e-02  0:01:17   77
     4  3.8411e-01  7.7547e-03  6.0578e-03  7.7566e-03  1.7179e-02  4.0392e-02  0:01:16   76
     5  2.7077e-01  6.2118e-03  4.7074e-03  6.2336e-03  1.2268e-02  3.3087e-02  0:01:30   75
     6  2.0333e-01  5.1276e-03  3.7152e-03  5.1683e-03  9.8226e-03  3.0600e-02  0:01:26   74

 reversed flow in 5 faces on pressure-outlet 10. 
     7  1.6202e-01  4.3839e-03  2.9625e-03  4.4320e-03  8.4208e-03  2.8296e-02  0:01:22   73

 reversed flow in 31 faces on pressure-outlet 10. 
     8  1.3269e-01  3.8669e-03  2.4957e-03  3.9207e-03  7.5038e-03  2.5944e-02  0:01:19   72

 reversed flow in 52 faces on pressure-outlet 10. 
     9  1.1211e-01  3.5211e-03  2.1984e-03  3.5795e-03  6.8650e-03  2.3878e-02  0:01:17   71

 reversed flow in 115 faces on pressure-outlet 10. 
    10  9.6631e-02  3.3135e-03  2.0473e-03  3.3744e-03  6.3091e-03  2.1393e-02  0:01:15   70

 reversed flow in 123 faces on pressure-outlet 10. 
    11  8.5752e-02  3.1592e-03  1.9297e-03  3.2240e-03  5.8885e-03  1.9555e-02  0:01:13   69

 reversed flow in 123 faces on pressure-outlet 10. 
  iter  continuity  x-velocity  y-velocity  z-velocity           k     epsilon     time/iter
    12  7.7830e-02  3.0323e-03  1.8405e-03  3.1033e-03  5.5558e-03  1.8204e-02  0:01:11   68

 reversed flow in 123 faces on pressure-outlet 10. 
    13  7.2219e-02  2.9299e-03  1.7585e-03  3.0031e-03  5.2804e-03  1.7194e-02  0:01:23   67

 reversed flow in 123 faces on pressure-outlet 10. 
    14  6.7576e-02  2.8394e-03  1.6939e-03  2.9176e-03  5.0428e-03  1.6398e-02  0:01:18   66

 reversed flow in 123 faces on pressure-outlet 10. 
    15  6.3657e-02  2.7612e-03  1.6376e-03  2.8460e-03  4.8302e-03  1.5740e-02  0:01:15   65

 reversed flow in 113 faces on pressure-outlet 10. 
    16  6.0351e-02  2.6933e-03  1.5898e-03  2.7851e-03  4.6308e-03  1.5164e-02  0:01:12   64

 reversed flow in 107 faces on pressure-outlet 10. 
    17  5.7311e-02  2.6322e-03  1.5479e-03  2.7313e-03  4.4410e-03  1.4636e-02  0:01:09   63

 reversed flow in 107 faces on pressure-outlet 10. 
    18  5.4718e-02  2.5791e-03  1.5069e-03  2.6842e-03  4.2575e-03  1.4135e-02  0:01:07   62

 reversed flow in 100 faces on pressure-outlet 10. 
    19  5.2445e-02  2.5314e-03  1.4705e-03  2.6422e-03  4.0799e-03  1.3653e-02  0:01:05   61

 reversed flow in 82 faces on pressure-outlet 10. 
    20  5.0334e-02  2.4894e-03  1.4359e-03  2.6054e-03  3.9085e-03  1.3186e-02  0:01:03   60

 reversed flow in 73 faces on pressure-outlet 10. 
    21  4.8390e-02  2.4504e-03  1.4018e-03  2.5719e-03  3.7440e-03  1.2729e-02  0:01:01   59

 reversed flow in 70 faces on pressure-outlet 10. 
    22  4.6548e-02  2.4131e-03  1.3730e-03  2.5395e-03  3.5867e-03  1.2285e-02  0:01:11   58

 reversed flow in 22 faces on pressure-outlet 10. 
  iter  continuity  x-velocity  y-velocity  z-velocity           k     epsilon     time/iter
    23  4.5000e-02  2.3776e-03  1.3437e-03  2.5082e-03  3.4374e-03  1.1856e-02  0:01:08   57

 reversed flow in 3 faces on pressure-outlet 10. 
    24  4.3654e-02  2.3430e-03  1.3139e-03  2.4774e-03  3.2958e-03  1.1445e-02  0:01:04   56
    25  4.2328e-02  2.3103e-03  1.2849e-03  2.4462e-03  3.1616e-03  1.1052e-02  0:01:02   55
    26  4.1089e-02  2.2790e-03  1.2583e-03  2.4138e-03  3.0342e-03  1.0678e-02  0:00:59   54
    27  3.9834e-02  2.2482e-03  1.2323e-03  2.3812e-03  2.9135e-03  1.0321e-02  0:00:57   53
    28  3.8695e-02  2.2188e-03  1.2093e-03  2.3475e-03  2.7993e-03  9.9841e-03  0:00:55   52
    29  3.7593e-02  2.1902e-03  1.1861e-03  2.3125e-03  2.6914e-03  9.6652e-03  0:00:53   51

 reversed flow in 2 faces on pressure-outlet 10. 
    30  3.6531e-02  2.1611e-03  1.1620e-03  2.2771e-03  2.5896e-03  9.3638e-03  0:00:52   50

 reversed flow in 13 faces on pressure-outlet 10. 
    31  3.5459e-02  2.1317e-03  1.1399e-03  2.2428e-03  2.4935e-03  9.0780e-03  0:00:51   49

 reversed flow in 18 faces on pressure-outlet 10. 
    32  3.4360e-02  2.1027e-03  1.1194e-03  2.2068e-03  2.4030e-03  8.8062e-03  0:00:49   48

 reversed flow in 32 faces on pressure-outlet 10. 
    33  3.3310e-02  2.0737e-03  1.0987e-03  2.1698e-03  2.3175e-03  8.5485e-03  0:00:48   47

 reversed flow in 53 faces on pressure-outlet 10. 
  iter  continuity  x-velocity  y-velocity  z-velocity           k     epsilon     time/iter
    34  3.2328e-02  2.0446e-03  1.0800e-03  2.1342e-03  2.2370e-03  8.3056e-03  0:00:47   46

 reversed flow in 76 faces on pressure-outlet 10. 
    35  3.1356e-02  2.0157e-03  1.0593e-03  2.0979e-03  2.1610e-03  8.0750e-03  0:00:46   45

 reversed flow in 123 faces on pressure-outlet 10. 
    36  3.0425e-02  1.9872e-03  1.0375e-03  2.0618e-03  2.0894e-03  7.8584e-03  0:00:44   44

 reversed flow in 123 faces on pressure-outlet 10. 
    37  2.9530e-02  1.9587e-03  1.0164e-03  2.0256e-03  2.0217e-03  7.6531e-03  0:00:52   43

 reversed flow in 123 faces on pressure-outlet 10. 
    38  2.8706e-02  1.9311e-03  9.9731e-04  1.9907e-03  1.9580e-03  7.4595e-03  0:00:49   42

 reversed flow in 123 faces on pressure-outlet 10. 
    39  2.8000e-02  1.9029e-03  9.7794e-04  1.9568e-03  1.8976e-03  7.2754e-03  0:00:46   41

 reversed flow in 123 faces on pressure-outlet 10. 
    40  2.7269e-02  1.8747e-03  9.5973e-04  1.9238e-03  1.8404e-03  7.0999e-03  0:00:44   40

 reversed flow in 123 faces on pressure-outlet 10. 
    41  2.6562e-02  1.8467e-03  9.4057e-04  1.8907e-03  1.7858e-03  6.9322e-03  0:00:42   39

 reversed flow in 123 faces on pressure-outlet 10. 
    42  2.5899e-02  1.8191e-03  9.2115e-04  1.8584e-03  1.7341e-03  6.7731e-03  0:00:41   38

 reversed flow in 123 faces on pressure-outlet 10. 
    43  2.5238e-02  1.7915e-03  9.0192e-04  1.8269e-03  1.6846e-03  6.6218e-03  0:00:39   37

 reversed flow in 123 faces on pressure-outlet 10. 
    44  2.4568e-02  1.7643e-03  8.8308e-04  1.7959e-03  1.6378e-03  6.4786e-03  0:00:38   36

 reversed flow in 123 faces on pressure-outlet 10. 
  iter  continuity  x-velocity  y-velocity  z-velocity           k     epsilon     time/iter
    45  2.3949e-02  1.7377e-03  8.6419e-04  1.7655e-03  1.5927e-03  6.3412e-03  0:00:36   35

 reversed flow in 123 faces on pressure-outlet 10. 
    46  2.3336e-02  1.7107e-03  8.4688e-04  1.7362e-03  1.5497e-03  6.2089e-03  0:00:35   34

 reversed flow in 123 faces on pressure-outlet 10. 
    47  2.2833e-02  1.6847e-03  8.2992e-04  1.7072e-03  1.5080e-03  6.0811e-03  0:00:34   33

 reversed flow in 123 faces on pressure-outlet 10. 
    48  2.2297e-02  1.6582e-03  8.1463e-04  1.6788e-03  1.4679e-03  5.9576e-03  0:00:33   32

 reversed flow in 123 faces on pressure-outlet 10. 
    49  2.1827e-02  1.6321e-03  8.0069e-04  1.6515e-03  1.4291e-03  5.8381e-03  0:00:31   31

 reversed flow in 123 faces on pressure-outlet 10. 
    50  2.1353e-02  1.6066e-03  7.8714e-04  1.6244e-03  1.3916e-03  5.7228e-03  0:00:30   30

 reversed flow in 123 faces on pressure-outlet 10. 
    51  2.0991e-02  1.5820e-03  7.7453e-04  1.5984e-03  1.3552e-03  5.6109e-03  0:00:35   29

 reversed flow in 123 faces on pressure-outlet 10. 
    52  2.0604e-02  1.5574e-03  7.6281e-04  1.5728e-03  1.3200e-03  5.5028e-03  0:00:33   28

 reversed flow in 123 faces on pressure-outlet 10. 
    53  2.0228e-02  1.5326e-03  7.5186e-04  1.5472e-03  1.2855e-03  5.3975e-03  0:00:31   27

 reversed flow in 123 faces on pressure-outlet 10. 
    54  1.9894e-02  1.5076e-03  7.4202e-04  1.5218e-03  1.2520e-03  5.2948e-03  0:00:29   26

 reversed flow in 123 faces on pressure-outlet 10. 
    55  1.9596e-02  1.4828e-03  7.3449e-04  1.4974e-03  1.2190e-03  5.1947e-03  0:00:27   25

 reversed flow in 123 faces on pressure-outlet 10. 
  iter  continuity  x-velocity  y-velocity  z-velocity           k     epsilon     time/iter
    56  1.9264e-02  1.4588e-03  7.2803e-04  1.4723e-03  1.1868e-03  5.0971e-03  0:00:26   24

 reversed flow in 123 faces on pressure-outlet 10. 
    57  1.8946e-02  1.4350e-03  7.2246e-04  1.4480e-03  1.1549e-03  5.0008e-03  0:00:24   23

 reversed flow in 123 faces on pressure-outlet 10. 
    58  1.8651e-02  1.4116e-03  7.1869e-04  1.4243e-03  1.1237e-03  4.9067e-03  0:00:23   22

 reversed flow in 123 faces on pressure-outlet 10. 
    59  1.8358e-02  1.3887e-03  7.1683e-04  1.4005e-03  1.0927e-03  4.8128e-03  0:00:22   21

 reversed flow in 123 faces on pressure-outlet 10. 
    60  1.8079e-02  1.3658e-03  7.1684e-04  1.3777e-03  1.0624e-03  4.7196e-03  0:00:21   20

 reversed flow in 123 faces on pressure-outlet 10. 
    61  1.7809e-02  1.3437e-03  7.1911e-04  1.3546e-03  1.0321e-03  4.6254e-03  0:00:19   19

 reversed flow in 123 faces on pressure-outlet 10. 
    62  1.7550e-02  1.3221e-03  7.2215e-04  1.3311e-03  1.0024e-03  4.5308e-03  0:00:22   18

 reversed flow in 123 faces on pressure-outlet 10. 
    63  1.7266e-02  1.3011e-03  7.2539e-04  1.3075e-03  9.7289e-04  4.4352e-03  0:00:20   17

 reversed flow in 123 faces on pressure-outlet 10. 
    64  1.6961e-02  1.2808e-03  7.2809e-04  1.2838e-03  9.4396e-04  4.3406e-03  0:00:18   16

 reversed flow in 123 faces on pressure-outlet 10. 
    65  1.6650e-02  1.2607e-03  7.3124e-04  1.2605e-03  9.1523e-04  4.2452e-03  0:00:17   15

 reversed flow in 123 faces on pressure-outlet 10. 
    66  1.6368e-02  1.2406e-03  7.3446e-04  1.2374e-03  8.8706e-04  4.1501e-03  0:00:15   14

 reversed flow in 123 faces on pressure-outlet 10. 
  iter  continuity  x-velocity  y-velocity  z-velocity           k     epsilon     time/iter
    67  1.6041e-02  1.2199e-03  7.3669e-04  1.2145e-03  8.5907e-04  4.0531e-03  0:00:14   13

 reversed flow in 123 faces on pressure-outlet 10. 
    68  1.5736e-02  1.1991e-03  7.3824e-04  1.1917e-03  8.3172e-04  3.9568e-03  0:00:13   12

 reversed flow in 123 faces on pressure-outlet 10. 
    69  1.5439e-02  1.1785e-03  7.3891e-04  1.1691e-03  8.0466e-04  3.8597e-03  0:00:12   11

 reversed flow in 123 faces on pressure-outlet 10. 
    70  1.5146e-02  1.1578e-03  7.3962e-04  1.1468e-03  7.7826e-04  3.7633e-03  0:00:10   10

 reversed flow in 108 faces on pressure-outlet 10. 
    71  1.4873e-02  1.1369e-03  7.4020e-04  1.1249e-03  7.5210e-04  3.6657e-03  0:00:09    9

 reversed flow in 121 faces on pressure-outlet 10. 
    72  1.4571e-02  1.1153e-03  7.3861e-04  1.1024e-03  7.2668e-04  3.5695e-03  0:00:08    8

 reversed flow in 123 faces on pressure-outlet 10. 
    73  1.4269e-02  1.0940e-03  7.3786e-04  1.0806e-03  7.0161e-04  3.4728e-03  0:00:07    7

 reversed flow in 110 faces on pressure-outlet 10. 
    74  1.3985e-02  1.0728e-03  7.3672e-04  1.0587e-03  6.7726e-04  3.3772e-03  0:00:06    6

 reversed flow in 107 faces on pressure-outlet 10. 
    75  1.3682e-02  1.0512e-03  7.3541e-04  1.0380e-03  6.5331e-04  3.2813e-03  0:00:05    5

 reversed flow in 108 faces on pressure-outlet 10. 
    76  1.3387e-02  1.0297e-03  7.3285e-04  1.0174e-03  6.3016e-04  3.1865e-03  0:00:04    4

 reversed flow in 98 faces on pressure-outlet 10. 
    77  1.3113e-02  1.0086e-03  7.3043e-04  9.9784e-04  6.0744e-04  3.0925e-03  0:00:03    3

 reversed flow in 104 faces on pressure-outlet 10. 
  iter  continuity  x-velocity  y-velocity  z-velocity           k     epsilon     time/iter
    78  1.2804e-02  9.8707e-04  7.2669e-04  9.7936e-04  5.8544e-04  2.9996e-03  0:00:02    2

 reversed flow in 95 faces on pressure-outlet 10. 
    79  1.2514e-02  9.6565e-04  7.2299e-04  9.6195e-04  5.6391e-04  2.9074e-03  0:00:01    1

 reversed flow in 76 faces on pressure-outlet 10. 
    80  1.2200e-02  9.4449e-04  7.1801e-04  9.4464e-04  5.4314e-04  2.8167e-03  0:00:00    0
Flow time = 0.05s, time step = 1
99 more time steps

Updating solution at time level N... done.
  iter  continuity  x-velocity  y-velocity  z-velocity           k     epsilon     time/iter
    80  1.2200e-02  9.4449e-04  7.1801e-04  9.4464e-04  5.4314e-04  2.8167e-03  0:01:36   80

 reversed flow in 70 faces on pressure-outlet 10. 
    81  3.9168e-02  3.7799e-03  1.7091e-03  3.7477e-03  2.1428e-03  5.8532e-03  0:01:32   79
    82  4.4128e-02  3.6734e-03  1.9490e-03  3.6276e-03  1.6419e-03  5.0425e-03  0:01:28   78
    83  4.2552e-02  3.4197e-03  1.9005e-03  3.3999e-03  1.4101e-03  4.4273e-03  0:01:25   77

 reversed flow in 6 faces on pressure-outlet 10. 
    84  4.3909e-02  3.2632e-03  1.9285e-03  3.3055e-03  1.3038e-03  4.0576e-03  0:01:22   76
    85  4.1538e-02  3.0801e-03  1.8345e-03  3.1357e-03  1.2259e-03  3.8116e-03  0:01:20   75
    86  4.0202e-02  2.9373e-03  1.7576e-03  3.0025e-03  1.1646e-03  3.6403e-03  0:01:18   74

 reversed flow in 7 faces on pressure-outlet 10. 
    87  3.8432e-02  2.8109e-03  1.6878e-03  2.8845e-03  1.1096e-03  3.4295e-03  0:01:16   73

 reversed flow in 16 faces on pressure-outlet 10. 
    88  3.6517e-02  2.6955e-03  1.6196e-03  2.7716e-03  1.0619e-03  3.2807e-03  0:01:14   72

 reversed flow in 31 faces on pressure-outlet 10. 
    89  3.4732e-02  2.5903e-03  1.5542e-03  2.6675e-03  1.0196e-03  3.1811e-03  0:01:13   71

 reversed flow in 51 faces on pressure-outlet 10. 
    90  3.3119e-02  2.4921e-03  1.4918e-03  2.5707e-03  9.8086e-04  3.1184e-03  0:01:12   70

 reversed flow in 53 faces on pressure-outlet 10. 
  iter  continuity  x-velocity  y-velocity  z-velocity           k     epsilon     time/iter
    91  3.1782e-02  2.4020e-03  1.4371e-03  2.4806e-03  9.4544e-04  3.0736e-03  0:01:10   69

 reversed flow in 59 faces on pressure-outlet 10. 
    92  3.0605e-02  2.3190e-03  1.3874e-03  2.3929e-03  9.1212e-04  3.0409e-03  0:01:09   68

 reversed flow in 80 faces on pressure-outlet 10. 
    93  2.9466e-02  2.2400e-03  1.3408e-03  2.3074e-03  8.8113e-04  3.0130e-03  0:01:08   67

 reversed flow in 99 faces on pressure-outlet 10. 
    94  2.8458e-02  2.1644e-03  1.2962e-03  2.2266e-03  8.5164e-04  2.9873e-03  0:01:20   66

 reversed flow in 122 faces on pressure-outlet 10. 
    95  2.7521e-02  2.0926e-03  1.2548e-03  2.1494e-03  8.2378e-04  2.9610e-03  0:01:16   65

 reversed flow in 123 faces on pressure-outlet 10. 
    96  2.6642e-02  2.0233e-03  1.2153e-03  2.0777e-03  7.9681e-04  2.9339e-03  0:01:13   64

 reversed flow in 123 faces on pressure-outlet 10. 
    97  2.5802e-02  1.9569e-03  1.1763e-03  2.0090e-03  7.7135e-04  2.9049e-03  0:01:10   63

 reversed flow in 122 faces on pressure-outlet 10. 
    98  2.5002e-02  1.8930e-03  1.1393e-03  1.9427e-03  7.4657e-04  2.8711e-03  0:01:07   62

 reversed flow in 118 faces on pressure-outlet 10. 
    99  2.4219e-02  1.8310e-03  1.1042e-03  1.8791e-03  7.2311e-04  2.8359e-03  0:01:05   61

 reversed flow in 123 faces on pressure-outlet 10. 
   100  2.3397e-02  1.7705e-03  1.0713e-03  1.8189e-03  7.0021e-04  2.7973e-03  0:01:03   60

 reversed flow in 123 faces on pressure-outlet 10. 
   101  2.2600e-02  1.7124e-03  1.0394e-03  1.7608e-03  6.7845e-04  2.7568e-03  0:01:02   59

 reversed flow in 123 faces on pressure-outlet 10. 
  iter  continuity  x-velocity  y-velocity  z-velocity           k     epsilon     time/iter
   102  2.1850e-02  1.6568e-03  1.0076e-03  1.7052e-03  6.5692e-04  2.7119e-03  0:01:00   58

 reversed flow in 123 faces on pressure-outlet 10. 
   103  2.1088e-02  1.6029e-03  9.7672e-04  1.6516e-03  6.3645e-04  2.6662e-03  0:00:59   57

 reversed flow in 123 faces on pressure-outlet 10. 
   104  2.0380e-02  1.5504e-03  9.4600e-04  1.5999e-03  6.1611e-04  2.6165e-03  0:00:57   56

 reversed flow in 123 faces on pressure-outlet 10. 
   105  1.9680e-02  1.4995e-03  9.1652e-04  1.5500e-03  5.9683e-04  2.5666e-03  0:00:56   55

 reversed flow in 123 faces on pressure-outlet 10. 
   106  1.9040e-02  1.4509e-03  8.8848e-04  1.5012e-03  5.7764e-04  2.5132e-03  0:00:55   54

 reversed flow in 123 faces on pressure-outlet 10. 
   107  1.8375e-02  1.4038e-03  8.6196e-04  1.4537e-03  5.5967e-04  2.4608e-03  0:00:54   53

 reversed flow in 123 faces on pressure-outlet 10. 
   108  1.7782e-02  1.3592e-03  8.3599e-04  1.4083e-03  5.4174e-04  2.4044e-03  0:00:52   52

 reversed flow in 123 faces on pressure-outlet 10. 
   109  1.7160e-02  1.3157e-03  8.1116e-04  1.3644e-03  5.2492e-04  2.3483e-03  0:00:51   51

 reversed flow in 123 faces on pressure-outlet 10. 
   110  1.6551e-02  1.2737e-03  7.8550e-04  1.3219e-03  5.0819e-04  2.2891e-03  0:00:50   50

 reversed flow in 123 faces on pressure-outlet 10. 
   111  1.5980e-02  1.2329e-03  7.6157e-04  1.2808e-03  4.9255e-04  2.2320e-03  0:00:59   49

 reversed flow in 123 faces on pressure-outlet 10. 
   112  1.5438e-02  1.1935e-03  7.3815e-04  1.2414e-03  4.7699e-04  2.1729e-03  0:00:56   48

 reversed flow in 123 faces on pressure-outlet 10. 
  iter  continuity  x-velocity  y-velocity  z-velocity           k     epsilon     time/iter
   113  1.4910e-02  1.1553e-03  7.1620e-04  1.2024e-03  4.6238e-04  2.1154e-03  0:00:53   47

 reversed flow in 117 faces on pressure-outlet 10. 
   114  1.4433e-02  1.1188e-03  6.9520e-04  1.1648e-03  4.4784e-04  2.0558e-03  0:00:51   46

 reversed flow in 123 faces on pressure-outlet 10. 
   115  1.3959e-02  1.0833e-03  6.7539e-04  1.1281e-03  4.3421e-04  1.9980e-03  0:00:49   45

 reversed flow in 122 faces on pressure-outlet 10. 
   116  1.3500e-02  1.0491e-03  6.5636e-04  1.0928e-03  4.2064e-04  1.9385e-03  0:00:47   44

 reversed flow in 118 faces on pressure-outlet 10. 
   117  1.3082e-02  1.0162e-03  6.3819e-04  1.0585e-03  4.0788e-04  1.8792e-03  0:00:45   43

 reversed flow in 108 faces on pressure-outlet 10. 
   118  1.2660e-02  9.8447e-04  6.2087e-04  1.0253e-03  3.9525e-04  1.8211e-03  0:00:44   42

 reversed flow in 123 faces on pressure-outlet 10. 
   119  1.2303e-02  9.5473e-04  6.0511e-04  9.9352e-04  3.8336e-04  1.7632e-03  0:00:42   41

 reversed flow in 123 faces on pressure-outlet 10. 
   120  1.1960e-02  9.2529e-04  5.8953e-04  9.6274e-04  3.7152e-04  1.7061e-03  0:00:41   40

 reversed flow in 119 faces on pressure-outlet 10. 
   121  1.1640e-02  8.9705e-04  5.7413e-04  9.3253e-04  3.6041e-04  1.6496e-03  0:00:40   39

 reversed flow in 107 faces on pressure-outlet 10. 
   122  1.1325e-02  8.6945e-04  5.5972e-04  9.0279e-04  3.4942e-04  1.5954e-03  0:00:39   38

 reversed flow in 114 faces on pressure-outlet 10. 
   123  1.0997e-02  8.4260e-04  5.4549e-04  8.7409e-04  3.3908e-04  1.5421e-03  0:00:38   37

 reversed flow in 107 faces on pressure-outlet 10. 
  iter  continuity  x-velocity  y-velocity  z-velocity           k     epsilon     time/iter
   124  1.0671e-02  8.1661e-04  5.3216e-04  8.4595e-04  3.2890e-04  1.4916e-03  0:00:36   36

 reversed flow in 109 faces on pressure-outlet 10. 
   125  1.0347e-02  7.9183e-04  5.1952e-04  8.1914e-04  3.1928e-04  1.4413e-03  0:00:35   35

 reversed flow in 110 faces on pressure-outlet 10. 
   126  1.0022e-02  7.6749e-04  5.0744e-04  7.9319e-04  3.0984e-04  1.3942e-03  0:00:34   34

 reversed flow in 107 faces on pressure-outlet 10. 
   127  9.7191e-03  7.4440e-04  4.9550e-04  7.6835e-04  3.0090e-04  1.3465e-03  0:00:33   33

 reversed flow in 107 faces on pressure-outlet 10. 
   128  9.4157e-03  7.2174e-04  4.8415e-04  7.4378e-04  2.9213e-04  1.3018e-03  0:00:32   32

 reversed flow in 107 faces on pressure-outlet 10. 
   129  9.1247e-03  7.0001e-04  4.7255e-04  7.1999e-04  2.8380e-04  1.2571e-03  0:00:31   31

 reversed flow in 107 faces on pressure-outlet 10. 
   130  8.8428e-03  6.7875e-04  4.6176e-04  6.9693e-04  2.7566e-04  1.2154e-03  0:00:30   30

 reversed flow in 105 faces on pressure-outlet 10. 
   131  8.5751e-03  6.5839e-04  4.5071e-04  6.7481e-04  2.6793e-04  1.1740e-03  0:00:29   29

 reversed flow in 105 faces on pressure-outlet 10. 
   132  8.2973e-03  6.3814e-04  4.4015e-04  6.5313e-04  2.6036e-04  1.1358e-03  0:00:28   28

 reversed flow in 105 faces on pressure-outlet 10. 
   133  8.0315e-03  6.1922e-04  4.2975e-04  6.3231e-04  2.5315e-04  1.0973e-03  0:00:27   27

 reversed flow in 106 faces on pressure-outlet 10. 
   134  7.7636e-03  6.0058e-04  4.1969e-04  6.1191e-04  2.4608e-04  1.0621e-03  0:00:31   26

 reversed flow in 107 faces on pressure-outlet 10. 
  iter  continuity  x-velocity  y-velocity  z-velocity           k     epsilon     time/iter
   135  7.5034e-03  5.8315e-04  4.0987e-04  5.9252e-04  2.3939e-04  1.0267e-03  0:00:29   25

 reversed flow in 107 faces on pressure-outlet 10. 
   136  7.2391e-03  5.6564e-04  4.0028e-04  5.7357e-04  2.3278e-04  9.9463e-04  0:00:27   24

 reversed flow in 107 faces on pressure-outlet 10. 
   137  6.9808e-03  5.4876e-04  3.9075e-04  5.5553e-04  2.2655e-04  9.6177e-04  0:00:25   23

 reversed flow in 107 faces on pressure-outlet 10. 
   138  6.7381e-03  5.3222e-04  3.8176e-04  5.3760e-04  2.2038e-04  9.3269e-04  0:00:24   22

 reversed flow in 107 faces on pressure-outlet 10. 
   139  6.5007e-03  5.1654e-04  3.7290e-04  5.2074e-04  2.1460e-04  9.0232e-04  0:00:27   21

 reversed flow in 105 faces on pressure-outlet 10. 
   140  6.2726e-03  5.0101e-04  3.6419e-04  5.0433e-04  2.0884e-04  8.7584e-04  0:00:24   20

 reversed flow in 101 faces on pressure-outlet 10. 
   141  6.0559e-03  4.8613e-04  3.5554e-04  4.8869e-04  2.0345e-04  8.4750e-04  0:00:22   19

 reversed flow in 94 faces on pressure-outlet 10. 
   142  5.8335e-03  4.7142e-04  3.4735e-04  4.7314e-04  1.9804e-04  8.2337e-04  0:00:20   18

 reversed flow in 86 faces on pressure-outlet 10. 
   143  5.6179e-03  4.5744e-04  3.3941e-04  4.5844e-04  1.9305e-04  7.9739e-04  0:00:22   17

 reversed flow in 77 faces on pressure-outlet 10. 
   144  5.4112e-03  4.4364e-04  3.3165e-04  4.4428e-04  1.8797e-04  7.7568e-04  0:00:20   16

 reversed flow in 74 faces on pressure-outlet 10. 
   145  5.2130e-03  4.3048e-04  3.2393e-04  4.3088e-04  1.8330e-04  7.5166e-04  0:00:18   15

 reversed flow in 70 faces on pressure-outlet 10. 
  iter  continuity  x-velocity  y-velocity  z-velocity           k     epsilon     time/iter
   146  5.0219e-03  4.1750e-04  3.1637e-04  4.1769e-04  1.7852e-04  7.3167e-04  0:00:16   14

 reversed flow in 69 faces on pressure-outlet 10. 
   147  4.8293e-03  4.0506e-04  3.0881e-04  4.0520e-04  1.7411e-04  7.0902e-04  0:00:15   13

 reversed flow in 65 faces on pressure-outlet 10. 
   148  4.6554e-03  3.9289e-04  3.0128e-04  3.9283e-04  1.6961e-04  6.9070e-04  0:00:13   12

 reversed flow in 63 faces on pressure-outlet 10. 
   149  4.4675e-03  3.8130e-04  2.9395e-04  3.8117e-04  1.6546e-04  6.6969e-04  0:00:12   11

 reversed flow in 57 faces on pressure-outlet 10. 
   150  4.2928e-03  3.7008e-04  2.8655e-04  3.6946e-04  1.6124e-04  6.5281e-04  0:00:11   10

 reversed flow in 52 faces on pressure-outlet 10. 
   151  4.1176e-03  3.5924e-04  2.7933e-04  3.5857e-04  1.5736e-04  6.3338e-04  0:00:09    9

 reversed flow in 48 faces on pressure-outlet 10. 
   152  3.9567e-03  3.4883e-04  2.7228e-04  3.4773e-04  1.5339e-04  6.1783e-04  0:00:08    8

 reversed flow in 48 faces on pressure-outlet 10. 
   153  3.7980e-03  3.3873e-04  2.6551e-04  3.3783e-04  1.4972e-04  5.9978e-04  0:00:07    7

 reversed flow in 44 faces on pressure-outlet 10. 
   154  3.6497e-03  3.2901e-04  2.5897e-04  3.2795e-04  1.4598e-04  5.8532e-04  0:00:06    6

 reversed flow in 42 faces on pressure-outlet 10. 
   155  3.5071e-03  3.1957e-04  2.5268e-04  3.1892e-04  1.4251e-04  5.6856e-04  0:00:05    5

 reversed flow in 42 faces on pressure-outlet 10. 
   156  3.3739e-03  3.1056e-04  2.4659e-04  3.0982e-04  1.3898e-04  5.5517e-04  0:00:04    4

 reversed flow in 42 faces on pressure-outlet 10. 
  iter  continuity  x-velocity  y-velocity  z-velocity           k     epsilon     time/iter
   157  3.2391e-03  3.0179e-04  2.4063e-04  3.0140e-04  1.3570e-04  5.3958e-04  0:00:03    3

 reversed flow in 42 faces on pressure-outlet 10. 
   158  3.1124e-03  2.9344e-04  2.3482e-04  2.9293e-04  1.3237e-04  5.2684e-04  0:00:02    2

 reversed flow in 42 faces on pressure-outlet 10. 
   159  2.9875e-03  2.8529e-04  2.2917e-04  2.8522e-04  1.2927e-04  5.1202e-04  0:00:01    1

 reversed flow in 42 faces on pressure-outlet 10. 
   160  2.8713e-03  2.7756e-04  2.2364e-04  2.7738e-04  1.2613e-04  5.0007e-04  0:00:00    0
Flow time = 0.1s, time step = 2
98 more time steps

Updating solution at time level N... done.
  iter  continuity  x-velocity  y-velocity  z-velocity           k     epsilon     time/iter
   160  2.8713e-03  2.7756e-04  2.2364e-04  2.7738e-04  1.2613e-04  5.0007e-04  0:01:21   80

 reversed flow in 42 faces on pressure-outlet 10. 
   161  2.1272e-02  2.1471e-03  1.0592e-03  2.1522e-03  2.5487e-03  4.5256e-03  0:01:19   79
   162  2.3931e-02  2.0776e-03  1.2142e-03  2.0940e-03  2.0723e-03  4.4089e-03  0:01:18   78
   163  2.4335e-02  1.9554e-03  1.1861e-03  1.9900e-03  1.7749e-03  4.0870e-03  0:01:17   77
   164  2.5106e-02  1.8621e-03  1.1723e-03  1.9112e-03  1.5721e-03  3.7874e-03  0:01:16   76
   165  2.5037e-02  1.7737e-03  1.1428e-03  1.8348e-03  1.4065e-03  3.5324e-03  0:01:15   75
   166  2.4451e-02  1.6935e-03  1.1036e-03  1.7591e-03  1.2620e-03  3.2451e-03  0:01:14   74
   167  2.3578e-02  1.6195e-03  1.0556e-03  1.6838e-03  1.1400e-03  3.0061e-03  0:01:13   73
   168  2.2630e-02  1.5511e-03  1.0039e-03  1.6084e-03  1.0356e-03  2.8111e-03  0:01:12   72

 reversed flow in 10 faces on pressure-outlet 10. 
   169  2.1606e-02  1.4846e-03  9.5774e-04  1.5346e-03  9.4590e-04  2.6347e-03  0:01:11   71

 reversed flow in 27 faces on pressure-outlet 10. 
   170  2.0594e-02  1.4209e-03  9.1634e-04  1.4660e-03  8.6800e-04  2.4814e-03  0:01:10   70

 reversed flow in 50 faces on pressure-outlet 10. 
  iter  continuity  x-velocity  y-velocity  z-velocity           k     epsilon     time/iter
   171  1.9612e-02  1.3609e-03  8.7660e-04  1.4010e-03  8.0027e-04  2.3364e-03  0:01:09   69

 reversed flow in 61 faces on pressure-outlet 10. 
   172  1.8701e-02  1.3038e-03  8.3919e-04  1.3408e-03  7.4049e-04  2.2083e-03  0:01:08   68

 reversed flow in 116 faces on pressure-outlet 10. 
   173  1.7775e-02  1.2502e-03  8.0246e-04  1.2840e-03  6.8799e-04  2.0845e-03  0:01:07   67

 reversed flow in 123 faces on pressure-outlet 10. 
   174  1.6862e-02  1.1991e-03  7.6679e-04  1.2298e-03  6.4111e-04  1.9749e-03  0:01:06   66

 reversed flow in 123 faces on pressure-outlet 10. 
   175  1.5953e-02  1.1504e-03  7.3319e-04  1.1784e-03  5.9964e-04  1.8680e-03  0:01:05   65

 reversed flow in 123 faces on pressure-outlet 10. 
   176  1.5116e-02  1.1051e-03  7.0115e-04  1.1303e-03  5.6225e-04  1.7734e-03  0:01:04   64

 reversed flow in 123 faces on pressure-outlet 10. 
   177  1.4343e-02  1.0618e-03  6.7090e-04  1.0849e-03  5.2899e-04  1.6806e-03  0:01:03   63

 reversed flow in 123 faces on pressure-outlet 10. 
   178  1.3626e-02  1.0202e-03  6.4224e-04  1.0414e-03  4.9865e-04  1.5981e-03  0:01:02   62

 reversed flow in 123 faces on pressure-outlet 10. 
   179  1.2952e-02  9.8056e-04  6.1568e-04  9.9990e-04  4.7158e-04  1.5175e-03  0:01:01   61

 reversed flow in 123 faces on pressure-outlet 10. 
   180  1.2305e-02  9.4285e-04  5.9109e-04  9.6007e-04  4.4671e-04  1.4460e-03  0:01:00   60

 reversed flow in 122 faces on pressure-outlet 10. 
   181  1.1652e-02  9.0709e-04  5.6862e-04  9.2231e-04  4.2437e-04  1.3757e-03  0:00:59   59

 reversed flow in 111 faces on pressure-outlet 10. 
  iter  continuity  x-velocity  y-velocity  z-velocity           k     epsilon     time/iter
   182  1.1039e-02  8.7347e-04  5.4694e-04  8.8657e-04  4.0363e-04  1.3133e-03  0:00:58   58

 reversed flow in 107 faces on pressure-outlet 10. 
   183  1.0460e-02  8.4151e-04  5.2664e-04  8.5268e-04  3.8487e-04  1.2505e-03  0:00:57   57

 reversed flow in 107 faces on pressure-outlet 10. 
   184  9.9267e-03  8.1104e-04  5.0747e-04  8.2058e-04  3.6731e-04  1.1946e-03  0:00:56   56

 reversed flow in 106 faces on pressure-outlet 10. 
   185  9.4156e-03  7.8190e-04  4.8943e-04  7.8985e-04  3.5136e-04  1.1395e-03  0:00:55   55

 reversed flow in 106 faces on pressure-outlet 10. 
   186  8.9506e-03  7.5402e-04  4.7207e-04  7.6046e-04  3.3627e-04  1.0914e-03  0:00:54   54

 reversed flow in 103 faces on pressure-outlet 10. 
   187  8.5004e-03  7.2744e-04  4.5595e-04  7.3274e-04  3.2251e-04  1.0432e-03  0:00:53   53

 reversed flow in 102 faces on pressure-outlet 10. 
   188  8.0816e-03  7.0228e-04  4.4050e-04  7.0648e-04  3.0938e-04  9.9985e-04  0:00:52   52

 reversed flow in 100 faces on pressure-outlet 10. 
   189  7.6941e-03  6.7805e-04  4.2604e-04  6.8170e-04  2.9737e-04  9.5624e-04  0:00:51   51

 reversed flow in 93 faces on pressure-outlet 10. 
   190  7.3432e-03  6.5503e-04  4.1221e-04  6.5783e-04  2.8589e-04  9.1798e-04  0:00:50   50

 reversed flow in 92 faces on pressure-outlet 10. 
   191  7.0050e-03  6.3315e-04  3.9941e-04  6.3519e-04  2.7535e-04  8.7920e-04  0:00:49   49

 reversed flow in 86 faces on pressure-outlet 10. 
   192  6.6947e-03  6.1260e-04  3.8671e-04  6.1330e-04  2.6523e-04  8.4486e-04  0:00:48   48

 reversed flow in 79 faces on pressure-outlet 10. 
  iter  continuity  x-velocity  y-velocity  z-velocity           k     epsilon     time/iter
   193  6.4064e-03  5.9305e-04  3.7511e-04  5.9253e-04  2.5590e-04  8.0990e-04  0:00:56   47

 reversed flow in 76 faces on pressure-outlet 10. 
   194  6.1508e-03  5.7427e-04  3.6373e-04  5.7274e-04  2.4694e-04  7.7925e-04  0:00:53   46

 reversed flow in 77 faces on pressure-outlet 10. 
   195  5.9029e-03  5.5626e-04  3.5329e-04  5.5408e-04  2.3867e-04  7.4826e-04  0:00:51   45

 reversed flow in 77 faces on pressure-outlet 10. 
   196  5.6831e-03  5.3918e-04  3.4300e-04  5.3621e-04  2.3069e-04  7.2074e-04  0:00:49   44

 reversed flow in 77 faces on pressure-outlet 10. 
   197  5.4607e-03  5.2240e-04  3.3347e-04  5.1914e-04  2.2330e-04  6.9400e-04  0:00:47   43

 reversed flow in 78 faces on pressure-outlet 10. 
   198  5.2615e-03  5.0669e-04  3.2398e-04  5.0264e-04  2.1617e-04  6.7058e-04  0:00:45   42

 reversed flow in 78 faces on pressure-outlet 10. 
   199  5.0679e-03  4.9134e-04  3.1505e-04  4.8710e-04  2.0953e-04  6.4657e-04  0:00:43   41

 reversed flow in 78 faces on pressure-outlet 10. 
   200  4.8955e-03  4.7675e-04  3.0634e-04  4.7211e-04  2.0310e-04  6.2589e-04  0:00:42   40

 reversed flow in 78 faces on pressure-outlet 10. 
   201  4.7163e-03  4.6227e-04  2.9836e-04  4.5787e-04  1.9712e-04  6.0480e-04  0:00:40   39

 reversed flow in 75 faces on pressure-outlet 10. 
   202  4.5580e-03  4.4858e-04  2.9044e-04  4.4421e-04  1.9130e-04  5.8660e-04  0:00:39   38

 reversed flow in 72 faces on pressure-outlet 10. 
   203  4.3949e-03  4.3552e-04  2.8301e-04  4.3101e-04  1.8588e-04  5.6756e-04  0:00:38   37

 reversed flow in 69 faces on pressure-outlet 10. 
  iter  continuity  x-velocity  y-velocity  z-velocity           k     epsilon     time/iter
   204  4.2534e-03  4.2312e-04  2.7551e-04  4.1838e-04  1.8059e-04  5.5148e-04  0:00:37   36

 reversed flow in 66 faces on pressure-outlet 10. 
   205  4.1118e-03  4.1113e-04  2.6864e-04  4.0613e-04  1.7566e-04  5.3475e-04  0:00:35   35

 reversed flow in 66 faces on pressure-outlet 10. 
   206  3.9800e-03  3.9967e-04  2.6179e-04  3.9455e-04  1.7084e-04  5.2097e-04  0:00:34   34

 reversed flow in 66 faces on pressure-outlet 10. 
   207  3.8506e-03  3.8856e-04  2.5553e-04  3.8329e-04  1.6635e-04  5.0633e-04  0:00:33   33

 reversed flow in 66 faces on pressure-outlet 10. 
   208  3.7287e-03  3.7788e-04  2.4911e-04  3.7243e-04  1.6194e-04  4.9395e-04  0:00:32   32

 reversed flow in 65 faces on pressure-outlet 10. 
   209  3.6116e-03  3.6770e-04  2.4334e-04  3.6184e-04  1.5781e-04  4.8064e-04  0:00:31   31

 reversed flow in 65 faces on pressure-outlet 10. 
   210  3.4951e-03  3.5770e-04  2.3737e-04  3.5173e-04  1.5373e-04  4.6946e-04  0:00:30   30

 reversed flow in 64 faces on pressure-outlet 10. 
   211  3.3859e-03  3.4823e-04  2.3205e-04  3.4196e-04  1.4991e-04  4.5740e-04  0:00:29   29

 reversed flow in 64 faces on pressure-outlet 10. 
   212  3.2778e-03  3.3881e-04  2.2644e-04  3.3268e-04  1.4613e-04  4.4716e-04  0:00:28   28

 reversed flow in 62 faces on pressure-outlet 10. 
   213  3.1780e-03  3.2993e-04  2.2154e-04  3.2362e-04  1.4260e-04  4.3616e-04  0:00:32   27

 reversed flow in 62 faces on pressure-outlet 10. 
   214  3.0807e-03  3.2105e-04  2.1629e-04  3.1502e-04  1.3909e-04  4.2684e-04  0:00:30   26

 reversed flow in 60 faces on pressure-outlet 10. 
  iter  continuity  x-velocity  y-velocity  z-velocity           k     epsilon     time/iter
   215  2.9903e-03  3.1273e-04  2.1171e-04  3.0652e-04  1.3580e-04  4.1655e-04  0:00:28   25

 reversed flow in 60 faces on pressure-outlet 10. 
   216  2.9018e-03  3.0441e-04  2.0671e-04  2.9807e-04  1.3252e-04  4.0820e-04  0:00:26   24

 reversed flow in 61 faces on pressure-outlet 10. 
   217  2.8171e-03  2.9652e-04  2.0233e-04  2.9001e-04  1.2946e-04  3.9874e-04  0:00:25   23

 reversed flow in 63 faces on pressure-outlet 10. 
   218  2.7274e-03  2.8860e-04  1.9760e-04  2.8231e-04  1.2640e-04  3.9103e-04  0:00:23   22

 reversed flow in 65 faces on pressure-outlet 10. 
   219  2.6439e-03  2.8116e-04  1.9338e-04  2.7487e-04  1.2355e-04  3.8261e-04  0:00:22   21

 reversed flow in 65 faces on pressure-outlet 10. 
   220  2.5578e-03  2.7366e-04  1.8881e-04  2.6777e-04  1.2067e-04  3.7547e-04  0:00:21   20

 reversed flow in 66 faces on pressure-outlet 10. 
   221  2.4810e-03  2.6684e-04  1.8477e-04  2.6088e-04  1.1800e-04  3.6755e-04  0:00:20   19

 reversed flow in 66 faces on pressure-outlet 10. 
   222  2.3986e-03  2.5986e-04  1.8052e-04  2.5434e-04  1.1530e-04  3.6088e-04  0:00:18   18

 reversed flow in 66 faces on pressure-outlet 10. 
   223  2.3242e-03  2.5338e-04  1.7677e-04  2.4798e-04  1.1279e-04  3.5348e-04  0:00:17   17

 reversed flow in 66 faces on pressure-outlet 10. 
   224  2.2523e-03  2.4689e-04  1.7286e-04  2.4199e-04  1.1024e-04  3.4714e-04  0:00:16   16

 reversed flow in 66 faces on pressure-outlet 10. 
   225  2.1839e-03  2.4094e-04  1.6941e-04  2.3608e-04  1.0787e-04  3.4026e-04  0:00:15   15

 reversed flow in 66 faces on pressure-outlet 10. 
  iter  continuity  x-velocity  y-velocity  z-velocity           k     epsilon     time/iter
   226  2.1125e-03  2.3482e-04  1.6577e-04  2.3048e-04  1.0547e-04  3.3430e-04  0:00:14   14

 reversed flow in 66 faces on pressure-outlet 10. 
   227  2.0451e-03  2.2931e-04  1.6245e-04  2.2491e-04  1.0324e-04  3.2794e-04  0:00:13   13

 reversed flow in 66 faces on pressure-outlet 10. 
   228  1.9800e-03  2.2365e-04  1.5906e-04  2.1966e-04  1.0097e-04  3.2220e-04  0:00:12   12

 reversed flow in 65 faces on pressure-outlet 10. 
   229  1.9213e-03  2.1857e-04  1.5592e-04  2.1450e-04  9.8866e-05  3.1620e-04  0:00:11   11

 reversed flow in 62 faces on pressure-outlet 10. 
   230  1.8647e-03  2.1336e-04  1.5272e-04  2.0955e-04  9.6719e-05  3.1063e-04  0:00:10   10

 reversed flow in 60 faces on pressure-outlet 10. 
   231  1.8095e-03  2.0860e-04  1.4972e-04  2.0465e-04  9.4721e-05  3.0428e-04  0:00:09    9

 reversed flow in 60 faces on pressure-outlet 10. 
   232  1.7545e-03  2.0361e-04  1.4669e-04  2.0008e-04  9.2693e-05  2.9956e-04  0:00:08    8

 reversed flow in 57 faces on pressure-outlet 10. 
   233  1.7014e-03  1.9912e-04  1.4384e-04  1.9554e-04  9.0805e-05  2.9317e-04  0:00:08    7

 reversed flow in 54 faces on pressure-outlet 10. 
   234  1.6491e-03  1.9448e-04  1.4100e-04  1.9130e-04  8.8883e-05  2.8824e-04  0:00:07    6

 reversed flow in 52 faces on pressure-outlet 10. 
   235  1.6015e-03  1.9030e-04  1.3825e-04  1.8710e-04  8.7103e-05  2.8256e-04  0:00:06    5

 reversed flow in 51 faces on pressure-outlet 10. 
   236  1.5530e-03  1.8594e-04  1.3558e-04  1.8317e-04  8.5283e-05  2.7764e-04  0:00:04    4

 reversed flow in 50 faces on pressure-outlet 10. 
  iter  continuity  x-velocity  y-velocity  z-velocity           k     epsilon     time/iter
   237  1.5074e-03  1.8201e-04  1.3304e-04  1.7922e-04  8.3604e-05  2.7212e-04  0:00:03    3

 reversed flow in 50 faces on pressure-outlet 10. 
   238  1.4621e-03  1.7795e-04  1.3058e-04  1.7546e-04  8.1885e-05  2.6763e-04  0:00:02    2

 reversed flow in 50 faces on pressure-outlet 10. 
   239  1.4215e-03  1.7435e-04  1.2821e-04  1.7177e-04  8.0299e-05  2.6223e-04  0:00:01    1

 reversed flow in 50 faces on pressure-outlet 10. 
   240  1.3807e-03  1.7062e-04  1.2595e-04  1.6831e-04  7.8676e-05  2.5805e-04  0:00:00    0
Flow time = 0.15s, time step = 3
97 more time steps

Updating solution at time level N... done.
  iter  continuity  x-velocity  y-velocity  z-velocity           k     epsilon     time/iter
   240  1.3807e-03  1.7062e-04  1.2595e-04  1.6831e-04  7.8676e-05  2.5805e-04  0:01:23   80

 reversed flow in 50 faces on pressure-outlet 10. 
   241  1.7095e-02  1.6455e-03  8.3688e-04  1.6600e-03  2.5551e-03  3.4001e-03  0:01:22   79

 reversed flow in 25 faces on pressure-outlet 10. 
   242  1.9671e-02  1.5825e-03  9.2248e-04  1.5897e-03  2.0710e-03  3.1777e-03  0:01:20   78

 reversed flow in 1 faces on pressure-outlet 10. 
   243  2.0957e-02  1.4813e-03  8.8784e-04  1.4930e-03  1.7504e-03  2.8703e-03  0:01:19   77
   244  2.1853e-02  1.3952e-03  8.6469e-04  1.4112e-03  1.5216e-03  2.6053e-03  0:01:17   76
   245  2.1666e-02  1.3141e-03  8.3338e-04  1.3333e-03  1.3323e-03  2.3297e-03  0:01:16   75
   246  2.0894e-02  1.2385e-03  7.9313e-04  1.2601e-03  1.1783e-03  2.1173e-03  0:01:15   74
   247  1.9854e-02  1.1688e-03  7.4652e-04  1.1906e-03  1.0510e-03  1.9414e-03  0:01:14   73
   248  1.8694e-02  1.1040e-03  6.9994e-04  1.1254e-03  9.4371e-04  1.7957e-03  0:01:13   72
   249  1.7479e-02  1.0427e-03  6.6001e-04  1.0638e-03  8.5359e-04  1.6669e-03  0:01:11   71
   250  1.6305e-02  9.8530e-04  6.2350e-04  1.0065e-03  7.7638e-04  1.5558e-03  0:01:24   70
  iter  continuity  x-velocity  y-velocity  z-velocity           k     epsilon     time/iter
   251  1.5169e-02  9.3276e-04  5.9138e-04  9.5265e-04  7.1061e-04  1.4538e-03  0:01:20   69

 reversed flow in 21 faces on pressure-outlet 10. 
   252  1.4114e-02  8.8381e-04  5.6064e-04  9.0356e-04  6.5347e-04  1.3639e-03  0:01:17   68

 reversed flow in 59 faces on pressure-outlet 10. 
   253  1.3135e-02  8.3920e-04  5.3264e-04  8.5760e-04  6.0422e-04  1.2802e-03  0:01:14   67

 reversed flow in 123 faces on pressure-outlet 10. 
   254  1.2216e-02  7.9769e-04  5.0592e-04  8.1518e-04  5.6084e-04  1.2055e-03  0:01:12   66

 reversed flow in 123 faces on pressure-outlet 10. 
   255  1.1343e-02  7.5918e-04  4.8176e-04  7.7533e-04  5.2307e-04  1.1352e-03  0:01:09   65

 reversed flow in 123 faces on pressure-outlet 10. 
   256  1.0539e-02  7.2332e-04  4.5882e-04  7.3833e-04  4.8937e-04  1.0722e-03  0:01:07   64

 reversed flow in 123 faces on pressure-outlet 10. 
   257  9.7864e-03  6.9001e-04  4.3768e-04  7.0325e-04  4.5972e-04  1.0124e-03  0:01:06   63

 reversed flow in 123 faces on pressure-outlet 10. 
   258  9.1065e-03  6.5875e-04  4.1737e-04  6.7104e-04  4.3291e-04  9.5870e-04  0:01:04   62

 reversed flow in 123 faces on pressure-outlet 10. 
   259  8.4974e-03  6.2975e-04  3.9893e-04  6.4056e-04  4.0905e-04  9.0751e-04  0:01:03   61

 reversed flow in 123 faces on pressure-outlet 10. 
   260  7.9258e-03  6.0252e-04  3.8109e-04  6.1238e-04  3.8718e-04  8.6159e-04  0:01:01   60

 reversed flow in 123 faces on pressure-outlet 10. 
   261  7.3901e-03  5.7721e-04  3.6507e-04  5.8548e-04  3.6760e-04  8.1772e-04  0:01:00   59

 reversed flow in 122 faces on pressure-outlet 10. 
  iter  continuity  x-velocity  y-velocity  z-velocity           k     epsilon     time/iter
   262  6.8971e-03  5.5369e-04  3.4989e-04  5.6098e-04  3.4944e-04  7.7831e-04  0:00:59   58

 reversed flow in 118 faces on pressure-outlet 10. 
   263  6.4536e-03  5.3184e-04  3.3628e-04  5.3748e-04  3.3304e-04  7.4012e-04  0:00:58   57

 reversed flow in 107 faces on pressure-outlet 10. 
   264  6.0479e-03  5.1129e-04  3.2304e-04  5.1602e-04  3.1767e-04  7.0595e-04  0:00:57   56

 reversed flow in 107 faces on pressure-outlet 10. 
   265  5.6651e-03  4.9238e-04  3.1126e-04  4.9537e-04  3.0372e-04  6.7314e-04  0:00:55   55

 reversed flow in 106 faces on pressure-outlet 10. 
   266  5.3138e-03  4.7435e-04  2.9961e-04  4.7647e-04  2.9056e-04  6.4367e-04  0:00:54   54

 reversed flow in 105 faces on pressure-outlet 10. 
   267  4.9947e-03  4.5756e-04  2.8931e-04  4.5831e-04  2.7856e-04  6.1537e-04  0:00:53   53

 reversed flow in 99 faces on pressure-outlet 10. 
   268  4.7034e-03  4.4163e-04  2.7898e-04  4.4160e-04  2.6716e-04  5.8955e-04  0:00:52   52

 reversed flow in 85 faces on pressure-outlet 10. 
   269  4.4330e-03  4.2676e-04  2.7000e-04  4.2561e-04  2.5673e-04  5.6488e-04  0:01:01   51

 reversed flow in 78 faces on pressure-outlet 10. 
   270  4.1927e-03  4.1269e-04  2.6077e-04  4.1099e-04  2.4677e-04  5.4211e-04  0:00:58   50

 reversed flow in 73 faces on pressure-outlet 10. 
   271  3.9706e-03  3.9953e-04  2.5282e-04  3.9697e-04  2.3764e-04  5.2053e-04  0:00:55   49

 reversed flow in 71 faces on pressure-outlet 10. 
   272  3.7655e-03  3.8670e-04  2.4466e-04  3.8393e-04  2.2886e-04  5.0057e-04  0:00:53   48

 reversed flow in 65 faces on pressure-outlet 10. 
  iter  continuity  x-velocity  y-velocity  z-velocity           k     epsilon     time/iter
   273  3.5760e-03  3.7454e-04  2.3770e-04  3.7153e-04  2.2080e-04  4.8144e-04  0:00:51   47

 reversed flow in 63 faces on pressure-outlet 10. 
   274  3.3999e-03  3.6300e-04  2.3036e-04  3.5988e-04  2.1303e-04  4.6413e-04  0:00:49   46

 reversed flow in 58 faces on pressure-outlet 10. 
   275  3.2418e-03  3.5219e-04  2.2410e-04  3.4878e-04  2.0589e-04  4.4742e-04  0:00:47   45

 reversed flow in 53 faces on pressure-outlet 10. 
   276  3.0946e-03  3.4169e-04  2.1764e-04  3.3834e-04  1.9899e-04  4.3230e-04  0:00:46   44

 reversed flow in 50 faces on pressure-outlet 10. 
   277  2.9601e-03  3.3184e-04  2.1204e-04  3.2841e-04  1.9265e-04  4.1760e-04  0:00:44   43

 reversed flow in 47 faces on pressure-outlet 10. 
   278  2.8337e-03  3.2231e-04  2.0625e-04  3.1907e-04  1.8648e-04  4.0432e-04  0:00:43   42

 reversed flow in 46 faces on pressure-outlet 10. 
   279  2.7213e-03  3.1333e-04  2.0117e-04  3.1019e-04  1.8081e-04  3.9137e-04  0:00:42   41

 reversed flow in 46 faces on pressure-outlet 10. 
   280  2.6127e-03  3.0452e-04  1.9593e-04  3.0181e-04  1.7527e-04  3.7964e-04  0:00:41   40

 reversed flow in 45 faces on pressure-outlet 10. 
   281  2.5147e-03  2.9615e-04  1.9131e-04  2.9379e-04  1.7018e-04  3.6803e-04  0:00:40   39

 reversed flow in 45 faces on pressure-outlet 10. 
   282  2.4239e-03  2.8811e-04  1.8657e-04  2.8605e-04  1.6518e-04  3.5754e-04  0:00:38   38

 reversed flow in 45 faces on pressure-outlet 10. 
   283  2.3412e-03  2.8048e-04  1.8237e-04  2.7857e-04  1.6058e-04  3.4730e-04  0:00:37   37

 reversed flow in 45 faces on pressure-outlet 10. 
  iter  continuity  x-velocity  y-velocity  z-velocity           k     epsilon     time/iter
   284  2.2602e-03  2.7297e-04  1.7808e-04  2.7152e-04  1.5606e-04  3.3816e-04  0:00:36   36

 reversed flow in 48 faces on pressure-outlet 10. 
   285  2.1879e-03  2.6584e-04  1.7423e-04  2.6476e-04  1.5188e-04  3.2897e-04  0:00:35   35

 reversed flow in 50 faces on pressure-outlet 10. 
   286  2.1207e-03  2.5887e-04  1.7041e-04  2.5819e-04  1.4777e-04  3.2078e-04  0:00:34   34

 reversed flow in 54 faces on pressure-outlet 10. 
   287  2.0584e-03  2.5225e-04  1.6683e-04  2.5180e-04  1.4396e-04  3.1255e-04  0:00:33   33

 reversed flow in 57 faces on pressure-outlet 10. 
   288  1.9965e-03  2.4576e-04  1.6313e-04  2.4559e-04  1.4020e-04  3.0535e-04  0:00:32   32

 reversed flow in 62 faces on pressure-outlet 10. 
   289  1.9390e-03  2.3963e-04  1.5971e-04  2.3967e-04  1.3672e-04  2.9792e-04  0:00:31   31

 reversed flow in 73 faces on pressure-outlet 10. 
   290  1.8837e-03  2.3365e-04  1.5631e-04  2.3392e-04  1.3327e-04  2.9155e-04  0:00:30   30

 reversed flow in 75 faces on pressure-outlet 10. 
   291  1.8321e-03  2.2804e-04  1.5306e-04  2.2846e-04  1.3008e-04  2.8485e-04  0:00:35   29

 reversed flow in 77 faces on pressure-outlet 10. 
   292  1.7813e-03  2.2252e-04  1.4987e-04  2.2295e-04  1.2691e-04  2.7904e-04  0:00:33   28

 reversed flow in 77 faces on pressure-outlet 10. 
   293  1.7337e-03  2.1729e-04  1.4680e-04  2.1779e-04  1.2397e-04  2.7295e-04  0:00:30   27

 reversed flow in 77 faces on pressure-outlet 10. 
   294  1.6846e-03  2.1205e-04  1.4383e-04  2.1267e-04  1.2104e-04  2.6766e-04  0:00:29   26

 reversed flow in 76 faces on pressure-outlet 10. 
  iter  continuity  x-velocity  y-velocity  z-velocity           k     epsilon     time/iter
   295  1.6411e-03  2.0712e-04  1.4091e-04  2.0793e-04  1.1832e-04  2.6180e-04  0:00:27   25

 reversed flow in 74 faces on pressure-outlet 10. 
   296  1.5951e-03  2.0215e-04  1.3816e-04  2.0316e-04  1.1561e-04  2.5727e-04  0:00:26   24

 reversed flow in 74 faces on pressure-outlet 10. 
   297  1.5527e-03  1.9752e-04  1.3549e-04  1.9869e-04  1.1308e-04  2.5174e-04  0:00:24   23

 reversed flow in 73 faces on pressure-outlet 10. 
   298  1.5092e-03  1.9295e-04  1.3296e-04  1.9417e-04  1.1057e-04  2.4763e-04  0:00:23   22

 reversed flow in 70 faces on pressure-outlet 10. 
   299  1.4711e-03  1.8873e-04  1.3047e-04  1.8998e-04  1.0822e-04  2.4240e-04  0:00:22   21

 reversed flow in 68 faces on pressure-outlet 10. 
   300  1.4297e-03  1.8451e-04  1.2814e-04  1.8565e-04  1.0590e-04  2.3903e-04  0:00:21   20

 reversed flow in 66 faces on pressure-outlet 10. 
   301  1.3928e-03  1.8057e-04  1.2574e-04  1.8163e-04  1.0372e-04  2.3477e-04  0:00:19   19

 reversed flow in 65 faces on pressure-outlet 10. 
   302  1.3522e-03  1.7660e-04  1.2357e-04  1.7753e-04  1.0156e-04  2.3224e-04  0:00:18   18

 reversed flow in 63 faces on pressure-outlet 10. 
   303  1.3187e-03  1.7297e-04  1.2134e-04  1.7378e-04  9.9537e-05  2.2801e-04  0:00:17   17

 reversed flow in 63 faces on pressure-outlet 10. 
   304  1.2838e-03  1.6923e-04  1.1942e-04  1.6999e-04  9.7564e-05  2.2708e-04  0:00:16   16

 reversed flow in 61 faces on pressure-outlet 10. 
   305  1.2522e-03  1.6584e-04  1.1744e-04  1.6658e-04  9.5662e-05  2.2295e-04  0:00:15   15

 reversed flow in 60 faces on pressure-outlet 10. 
  iter  continuity  x-velocity  y-velocity  z-velocity           k     epsilon     time/iter
   306  1.2229e-03  1.6231e-04  1.1569e-04  1.6299e-04  9.3792e-05  2.2043e-04  0:00:14   14

 reversed flow in 60 faces on pressure-outlet 10. 
   307  1.1893e-03  1.5917e-04  1.1376e-04  1.5986e-04  9.1991e-05  2.1511e-04  0:00:13   13

 reversed flow in 59 faces on pressure-outlet 10. 
   308  1.1625e-03  1.5583e-04  1.1214e-04  1.5642e-04  9.0246e-05  2.1361e-04  0:00:12   12

 reversed flow in 58 faces on pressure-outlet 10. 
   309  1.1318e-03  1.5291e-04  1.1024e-04  1.5340e-04  8.8562e-05  2.0815e-04  0:00:13   11

 reversed flow in 58 faces on pressure-outlet 10. 
   310  1.1044e-03  1.4987e-04  1.0868e-04  1.5014e-04  8.6906e-05  2.0550e-04  0:00:12   10

 reversed flow in 58 faces on pressure-outlet 10. 
   311  1.0777e-03  1.4714e-04  1.0691e-04  1.4726e-04  8.5326e-05  2.0022e-04  0:00:10    9

 reversed flow in 58 faces on pressure-outlet 10. 
   312  1.0512e-03  1.4425e-04  1.0539e-04  1.4421e-04  8.3779e-05  1.9714e-04  0:00:09    8

 reversed flow in 58 faces on pressure-outlet 10. 
   313  1.0297e-03  1.4169e-04  1.0378e-04  1.4146e-04  8.2312e-05  1.9317e-04  0:00:08    7

 reversed flow in 58 faces on pressure-outlet 10. 
   314  1.0045e-03  1.3893e-04  1.0237e-04  1.3858e-04  8.0862e-05  1.9071e-04  0:00:06    6

 reversed flow in 56 faces on pressure-outlet 10. 
   315  9.8389e-04  1.3648e-04  1.0088e-04  1.3597e-04  7.9481e-05  1.8730e-04  0:00:05    5

 reversed flow in 56 faces on pressure-outlet 10. 
   316  9.5905e-04  1.3384e-04  9.9542e-05  1.3336e-04  7.8110e-05  1.8466e-04  0:00:04    4

 reversed flow in 56 faces on pressure-outlet 10. 
  iter  continuity  x-velocity  y-velocity  z-velocity           k     epsilon     time/iter
   317  9.4046e-04  1.3151e-04  9.8168e-05  1.3094e-04  7.6813e-05  1.8171e-04  0:00:03    3

 reversed flow in 56 faces on pressure-outlet 10. 
   318  9.1679e-04  1.2903e-04  9.6896e-05  1.2848e-04  7.5520e-05  1.7900e-04  0:00:02    2

 reversed flow in 54 faces on pressure-outlet 10. 
   319  9.0023e-04  1.2684e-04  9.5637e-05  1.2620e-04  7.4302e-05  1.7660e-04  0:00:01    1

 reversed flow in 54 faces on pressure-outlet 10. 
   320  8.7706e-04  1.2453e-04  9.4428e-05  1.2391e-04  7.3083e-05  1.7386e-04  0:00:00    0
Flow time = 0.2s, time step = 4
96 more time steps

Updating solution at time level N... done.
  iter  continuity  x-velocity  y-velocity  z-velocity           k     epsilon     time/iter
   320  8.7706e-04  1.2453e-04  9.4428e-05  1.2391e-04  7.3083e-05  1.7386e-04  0:01:21   80

 reversed flow in 54 faces on pressure-outlet 10. 
   321  1.3922e-02  1.3134e-03  6.2387e-04  1.3484e-03  2.6269e-03  2.6062e-03  0:01:20   79

 reversed flow in 41 faces on pressure-outlet 10. 
   322  1.6003e-02  1.2549e-03  6.7652e-04  1.2826e-03  2.1180e-03  2.3554e-03  0:01:19   78

 reversed flow in 25 faces on pressure-outlet 10. 
   323  1.6982e-02  1.1679e-03  6.4817e-04  1.1961e-03  1.7712e-03  2.0884e-03  0:01:18   77

 reversed flow in 18 faces on pressure-outlet 10. 
   324  1.7440e-02  1.0915e-03  6.2848e-04  1.1229e-03  1.5101e-03  1.8199e-03  0:01:17   76

 reversed flow in 19 faces on pressure-outlet 10. 
   325  1.7115e-02  1.0190e-03  6.0241e-04  1.0545e-03  1.3093e-03  1.6163e-03  0:01:15   75

 reversed flow in 17 faces on pressure-outlet 10. 
   326  1.6311e-02  9.5254e-04  5.7107e-04  9.9013e-04  1.1478e-03  1.4580e-03  0:01:14   74

 reversed flow in 13 faces on pressure-outlet 10. 
   327  1.5330e-02  8.9162e-04  5.3800e-04  9.2888e-04  1.0163e-03  1.3293e-03  0:01:13   73

 reversed flow in 19 faces on pressure-outlet 10. 
   328  1.4278e-02  8.3602e-04  5.0444e-04  8.7195e-04  9.0730e-04  1.2225e-03  0:01:12   72

 reversed flow in 26 faces on pressure-outlet 10. 
   329  1.3212e-02  7.8481e-04  4.7430e-04  8.1867e-04  8.1723e-04  1.1313e-03  0:01:11   71

 reversed flow in 67 faces on pressure-outlet 10. 
   330  1.2172e-02  7.3856e-04  4.4665e-04  7.7032e-04  7.4140e-04  1.0541e-03  0:01:10   70

 reversed flow in 92 faces on pressure-outlet 10. 
  iter  continuity  x-velocity  y-velocity  z-velocity           k     epsilon     time/iter
   331  1.1219e-02  6.9667e-04  4.2245e-04  7.2547e-04  6.7764e-04  9.8684e-04  0:01:09   69

 reversed flow in 123 faces on pressure-outlet 10. 
   332  1.0309e-02  6.5834e-04  3.9949e-04  6.8506e-04  6.2292e-04  9.2797e-04  0:01:08   68

 reversed flow in 110 faces on pressure-outlet 10. 
   333  9.4793e-03  6.2346e-04  3.7872e-04  6.4714e-04  5.7616e-04  8.7505e-04  0:01:07   67

 reversed flow in 123 faces on pressure-outlet 10. 
   334  8.7089e-03  5.9122e-04  3.5881e-04  6.1206e-04  5.3542e-04  8.2805e-04  0:01:06   66

 reversed flow in 123 faces on pressure-outlet 10. 
   335  8.0215e-03  5.6162e-04  3.4111e-04  5.7943e-04  5.0008e-04  7.8490e-04  0:01:05   65

 reversed flow in 123 faces on pressure-outlet 10. 
   336  7.3769e-03  5.3408e-04  3.2416e-04  5.4971e-04  4.6873e-04  7.4633e-04  0:01:04   64

 reversed flow in 123 faces on pressure-outlet 10. 
   337  6.8029e-03  5.0846e-04  3.0929e-04  5.2213e-04  4.4114e-04  7.1065e-04  0:01:03   63

 reversed flow in 108 faces on pressure-outlet 10. 
   338  6.2728e-03  4.8473e-04  2.9481e-04  4.9688e-04  4.1631e-04  6.7810e-04  0:01:02   62

 reversed flow in 120 faces on pressure-outlet 10. 
   339  5.8010e-03  4.6254e-04  2.8196e-04  4.7327e-04  3.9417e-04  6.4725e-04  0:01:01   61

 reversed flow in 107 faces on pressure-outlet 10. 
   340  5.3641e-03  4.4175e-04  2.6950e-04  4.5154e-04  3.7395e-04  6.1908e-04  0:01:12   60

 reversed flow in 107 faces on pressure-outlet 10. 
   341  4.9798e-03  4.2274e-04  2.5842e-04  4.3125e-04  3.5570e-04  5.9221e-04  0:01:08   59

 reversed flow in 106 faces on pressure-outlet 10. 
  iter  continuity  x-velocity  y-velocity  z-velocity           k     epsilon     time/iter
   342  4.6169e-03  4.0495e-04  2.4769e-04  4.1246e-04  3.3883e-04  5.6743e-04  0:01:05   58

 reversed flow in 103 faces on pressure-outlet 10. 
   343  4.2924e-03  3.8849e-04  2.3816e-04  3.9484e-04  3.2346e-04  5.4374e-04  0:01:03   57

 reversed flow in 97 faces on pressure-outlet 10. 
   344  3.9909e-03  3.7298e-04  2.2880e-04  3.7878e-04  3.0910e-04  5.2154e-04  0:01:01   56

 reversed flow in 92 faces on pressure-outlet 10. 
   345  3.7223e-03  3.5881e-04  2.2050e-04  3.6378e-04  2.9592e-04  5.0078e-04  0:00:59   55

 reversed flow in 80 faces on pressure-outlet 10. 
   346  3.4775e-03  3.4541e-04  2.1245e-04  3.4997e-04  2.8353e-04  4.8094e-04  0:00:57   54

 reversed flow in 74 faces on pressure-outlet 10. 
   347  3.2624e-03  3.3293e-04  2.0539e-04  3.3700e-04  2.7209e-04  4.6279e-04  0:00:55   53

 reversed flow in 69 faces on pressure-outlet 10. 
   348  3.0602e-03  3.2105e-04  1.9844e-04  3.2492e-04  2.6130e-04  4.4510e-04  0:00:54   52

 reversed flow in 67 faces on pressure-outlet 10. 
   349  2.8838e-03  3.1002e-04  1.9229e-04  3.1357e-04  2.5128e-04  4.2905e-04  0:00:52   51

 reversed flow in 61 faces on pressure-outlet 10. 
   350  2.7137e-03  2.9957e-04  1.8620e-04  3.0284e-04  2.4180e-04  4.1339e-04  0:00:51   50

 reversed flow in 55 faces on pressure-outlet 10. 
   351  2.5660e-03  2.8974e-04  1.8083e-04  2.9269e-04  2.3297e-04  3.9945e-04  0:00:50   49

 reversed flow in 54 faces on pressure-outlet 10. 
   352  2.4255e-03  2.8035e-04  1.7547e-04  2.8310e-04  2.2460e-04  3.8573e-04  0:00:49   48

 reversed flow in 50 faces on pressure-outlet 10. 
  iter  continuity  x-velocity  y-velocity  z-velocity           k     epsilon     time/iter
   353  2.3049e-03  2.7148e-04  1.7080e-04  2.7412e-04  2.1676e-04  3.7361e-04  0:00:48   47

 reversed flow in 50 faces on pressure-outlet 10. 
   354  2.1875e-03  2.6299e-04  1.6605e-04  2.6562e-04  2.0933e-04  3.6152e-04  0:00:46   46

 reversed flow in 50 faces on pressure-outlet 10. 
   355  2.0863e-03  2.5501e-04  1.6201e-04  2.5776e-04  2.0232e-04  3.5106e-04  0:00:45   45

 reversed flow in 48 faces on pressure-outlet 10. 
   356  1.9876e-03  2.4742e-04  1.5783e-04  2.5012e-04  1.9569e-04  3.4036e-04  0:00:44   44

 reversed flow in 46 faces on pressure-outlet 10. 
   357  1.9026e-03  2.4019e-04  1.5431e-04  2.4307e-04  1.8941e-04  3.3135e-04  0:00:43   43

 reversed flow in 45 faces on pressure-outlet 10. 
   358  1.8219e-03  2.3335e-04  1.5056e-04  2.3618e-04  1.8347e-04  3.2199e-04  0:00:42   42

 reversed flow in 45 faces on pressure-outlet 10. 
   359  1.7530e-03  2.2680e-04  1.4744e-04  2.2992e-04  1.7782e-04  3.1433e-04  0:00:41   41

 reversed flow in 45 faces on pressure-outlet 10. 
   360  1.6872e-03  2.2052e-04  1.4411e-04  2.2375e-04  1.7250e-04  3.0624e-04  0:00:40   40

 reversed flow in 45 faces on pressure-outlet 10. 
   361  1.6316e-03  2.1459e-04  1.4135e-04  2.1812e-04  1.6740e-04  2.9970e-04  0:00:39   39

 reversed flow in 45 faces on pressure-outlet 10. 
   362  1.5760e-03  2.0897e-04  1.3841e-04  2.1235e-04  1.6261e-04  2.9275e-04  0:00:38   38

 reversed flow in 45 faces on pressure-outlet 10. 
   363  1.5280e-03  2.0354e-04  1.3596e-04  2.0701e-04  1.5800e-04  2.8733e-04  0:00:37   37

 reversed flow in 45 faces on pressure-outlet 10. 
  iter  continuity  x-velocity  y-velocity  z-velocity           k     epsilon     time/iter
   364  1.4784e-03  1.9826e-04  1.3330e-04  2.0164e-04  1.5366e-04  2.8123e-04  0:00:36   36

 reversed flow in 45 faces on pressure-outlet 10. 
   365  1.4350e-03  1.9313e-04  1.3102e-04  1.9683e-04  1.4946e-04  2.7650e-04  0:00:42   35

 reversed flow in 45 faces on pressure-outlet 10. 
   366  1.3905e-03  1.8820e-04  1.2859e-04  1.9194e-04  1.4550e-04  2.7117e-04  0:00:39   34

 reversed flow in 45 faces on pressure-outlet 10. 
   367  1.3524e-03  1.8351e-04  1.2654e-04  1.8748e-04  1.4165e-04  2.6698e-04  0:00:37   33

 reversed flow in 45 faces on pressure-outlet 10. 
   368  1.3125e-03  1.7900e-04  1.2435e-04  1.8295e-04  1.3801e-04  2.6195e-04  0:00:35   32

 reversed flow in 45 faces on pressure-outlet 10. 
   369  1.2788e-03  1.7463e-04  1.2241e-04  1.7886e-04  1.3445e-04  2.5822e-04  0:00:34   31

 reversed flow in 46 faces on pressure-outlet 10. 
   370  1.2424e-03  1.7044e-04  1.2033e-04  1.7463e-04  1.3110e-04  2.5371e-04  0:00:32   30

 reversed flow in 46 faces on pressure-outlet 10. 
   371  1.2111e-03  1.6635e-04  1.1848e-04  1.7085e-04  1.2781e-04  2.5038e-04  0:00:31   29

 reversed flow in 47 faces on pressure-outlet 10. 
   372  1.1768e-03  1.6238e-04  1.1651e-04  1.6690e-04  1.2474e-04  2.4622e-04  0:00:29   28

 reversed flow in 47 faces on pressure-outlet 10. 
   373  1.1475e-03  1.5858e-04  1.1478e-04  1.6329e-04  1.2170e-04  2.4326e-04  0:00:28   27

 reversed flow in 49 faces on pressure-outlet 10. 
   374  1.1167e-03  1.5495e-04  1.1298e-04  1.5954e-04  1.1886e-04  2.3958e-04  0:00:27   26

 reversed flow in 51 faces on pressure-outlet 10. 
  iter  continuity  x-velocity  y-velocity  z-velocity           k     epsilon     time/iter
   375  1.0889e-03  1.5138e-04  1.1135e-04  1.5613e-04  1.1605e-04  2.3711e-04  0:00:26   25

 reversed flow in 51 faces on pressure-outlet 10. 
   376  1.0600e-03  1.4792e-04  1.0967e-04  1.5262e-04  1.1343e-04  2.3377e-04  0:00:24   24

 reversed flow in 51 faces on pressure-outlet 10. 
   377  1.0346e-03  1.4469e-04  1.0809e-04  1.4936e-04  1.1083e-04  2.3166e-04  0:00:23   23

 reversed flow in 52 faces on pressure-outlet 10. 
   378  1.0092e-03  1.4151e-04  1.0653e-04  1.4608e-04  1.0840e-04  2.2866e-04  0:00:22   22

 reversed flow in 52 faces on pressure-outlet 10. 
   379  9.8642e-04  1.3855e-04  1.0503e-04  1.4299e-04  1.0599e-04  2.2681e-04  0:00:21   21

 reversed flow in 53 faces on pressure-outlet 10. 
   380  9.6299e-04  1.3562e-04  1.0360e-04  1.3991e-04  1.0374e-04  2.2408e-04  0:00:20   20

 reversed flow in 53 faces on pressure-outlet 10. 
   381  9.4175e-04  1.3285e-04  1.0219e-04  1.3703e-04  1.0149e-04  2.2247e-04  0:00:19   19

 reversed flow in 54 faces on pressure-outlet 10. 
   382  9.2065e-04  1.3009e-04  1.0090e-04  1.3416e-04  9.9399e-05  2.2002e-04  0:00:18   18

 reversed flow in 54 faces on pressure-outlet 10. 
   383  9.0077e-04  1.2753e-04  9.9593e-05  1.3144e-04  9.7309e-05  2.1870e-04  0:00:17   17

 reversed flow in 54 faces on pressure-outlet 10. 
   384  8.8218e-04  1.2498e-04  9.8437e-05  1.2875e-04  9.5364e-05  2.1641e-04  0:00:16   16

 reversed flow in 54 faces on pressure-outlet 10. 
   385  8.6436e-04  1.2264e-04  9.7254e-05  1.2617e-04  9.3414e-05  2.1520e-04  0:00:15   15

 reversed flow in 54 faces on pressure-outlet 10. 
  iter  continuity  x-velocity  y-velocity  z-velocity           k     epsilon     time/iter
   386  8.4724e-04  1.2028e-04  9.6196e-05  1.2360e-04  9.1601e-05  2.1308e-04  0:00:14   14

 reversed flow in 53 faces on pressure-outlet 10. 
   387  8.3159e-04  1.1810e-04  9.5065e-05  1.2119e-04  8.9773e-05  2.1157e-04  0:00:13   13

 reversed flow in 53 faces on pressure-outlet 10. 
   388  8.1599e-04  1.1590e-04  9.4080e-05  1.1881e-04  8.8077e-05  2.0940e-04  0:00:12   12

 reversed flow in 52 faces on pressure-outlet 10. 
   389  8.0314e-04  1.1385e-04  9.3023e-05  1.1659e-04  8.6368e-05  2.0819e-04  0:00:11   11

 reversed flow in 52 faces on pressure-outlet 10. 
   390  7.8881e-04  1.1179e-04  9.2129e-05  1.1432e-04  8.4781e-05  2.0639e-04  0:00:10   10

 reversed flow in 51 faces on pressure-outlet 10. 
   391  7.7762e-04  1.0985e-04  9.1151e-05  1.1220e-04  8.3177e-05  2.0523e-04  0:00:11    9

 reversed flow in 51 faces on pressure-outlet 10. 
   392  7.6355e-04  1.0789e-04  9.0325e-05  1.1003e-04  8.1683e-05  2.0311e-04  0:00:09    8

 reversed flow in 51 faces on pressure-outlet 10. 
   393  7.5288e-04  1.0604e-04  8.9400e-05  1.0800e-04  8.0171e-05  2.0164e-04  0:00:08    7

 reversed flow in 51 faces on pressure-outlet 10. 
   394  7.3897e-04  1.0414e-04  8.8624e-05  1.0596e-04  7.8764e-05  1.9936e-04  0:00:07    6

 reversed flow in 51 faces on pressure-outlet 10. 
   395  7.2782e-04  1.0236e-04  8.7733e-05  1.0406e-04  7.7342e-05  1.9788e-04  0:00:05    5

 reversed flow in 51 faces on pressure-outlet 10. 
   396  7.1335e-04  1.0056e-04  8.7001e-05  1.0214e-04  7.6023e-05  1.9570e-04  0:00:04    4

 reversed flow in 47 faces on pressure-outlet 10. 
  iter  continuity  x-velocity  y-velocity  z-velocity           k     epsilon     time/iter
   397  7.0309e-04  9.8894e-05  8.6159e-05  1.0040e-04  7.4685e-05  1.9432e-04  0:00:03    3

 reversed flow in 46 faces on pressure-outlet 10. 
   398  6.8892e-04  9.7203e-05  8.5463e-05  9.8616e-05  7.3446e-05  1.9233e-04  0:00:02    2

 reversed flow in 45 faces on pressure-outlet 10. 
   399  6.7902e-04  9.5629e-05  8.4637e-05  9.7013e-05  7.2188e-05  1.9107e-04  0:00:01    1

 reversed flow in 45 faces on pressure-outlet 10. 
   400  6.6629e-04  9.4048e-05  8.3991e-05  9.5349e-05  7.1024e-05  1.8937e-04  0:00:00    0
Flow time = 0.25s, time step = 5
95 more time steps

Updating solution at time level N... done.
  iter  continuity  x-velocity  y-velocity  z-velocity           k     epsilon     time/iter
   400  6.6629e-04  9.4048e-05  8.3991e-05  9.5349e-05  7.1024e-05  1.8937e-04  0:01:22   80

 reversed flow in 45 faces on pressure-outlet 10. 
   401  1.1058e-02  1.0599e-03  4.7849e-04  1.1018e-03  2.7151e-03  2.2249e-03  0:01:21   79

 reversed flow in 116 faces on pressure-outlet 10. 
   402  1.2374e-02  1.0076e-03  5.1503e-04  1.0456e-03  2.1556e-03  1.9098e-03  0:01:19   78

 reversed flow in 47 faces on pressure-outlet 10. 
   403  1.2923e-02  9.3252e-04  4.9196e-04  9.7152e-04  1.7763e-03  1.6335e-03  0:01:18   77

 reversed flow in 68 faces on pressure-outlet 10. 
   404  1.3110e-02  8.6770e-04  4.7522e-04  9.0741e-04  1.5047e-03  1.4238e-03  0:01:17   76

 reversed flow in 44 faces on pressure-outlet 10. 
   405  1.2782e-02  8.0764e-04  4.5490e-04  8.4791e-04  1.2970e-03  1.2718e-03  0:01:16   75

 reversed flow in 36 faces on pressure-outlet 10. 
   406  1.2129e-02  7.5265e-04  4.3035e-04  7.9144e-04  1.1321e-03  1.1570e-03  0:01:15   74

 reversed flow in 34 faces on pressure-outlet 10. 
   407  1.1364e-02  7.0291e-04  4.0482e-04  7.3823e-04  9.9850e-04  1.0656e-03  0:01:13   73

 reversed flow in 43 faces on pressure-outlet 10. 
   408  1.0552e-02  6.5767e-04  3.7896e-04  6.8968e-04  8.8939e-04  9.9139e-04  0:01:12   72

 reversed flow in 41 faces on pressure-outlet 10. 
   409  9.7555e-03  6.1677e-04  3.5610e-04  6.4493e-04  7.9911e-04  9.2906e-04  0:01:11   71

 reversed flow in 58 faces on pressure-outlet 10. 
   410  8.9749e-03  5.7897e-04  3.3486e-04  6.0504e-04  7.2387e-04  8.7524e-04  0:01:10   70

 reversed flow in 80 faces on pressure-outlet 10. 
  iter  continuity  x-velocity  y-velocity  z-velocity           k     epsilon     time/iter
   411  8.2396e-03  5.4468e-04  3.1678e-04  5.6865e-04  6.6046e-04  8.2857e-04  0:01:09   69

 reversed flow in 85 faces on pressure-outlet 10. 
   412  7.5603e-03  5.1321e-04  2.9932e-04  5.3596e-04  6.0672e-04  7.8668e-04  0:01:08   68

 reversed flow in 113 faces on pressure-outlet 10. 
   413  6.9563e-03  4.8478e-04  2.8430e-04  5.0552e-04  5.6044e-04  7.4947e-04  0:01:07   67

 reversed flow in 89 faces on pressure-outlet 10. 
   414  6.3977e-03  4.5854e-04  2.6954e-04  4.7760e-04  5.2045e-04  7.1504e-04  0:01:19   66

 reversed flow in 107 faces on pressure-outlet 10. 
   415  5.8846e-03  4.3446e-04  2.5683e-04  4.5190e-04  4.8539e-04  6.8434e-04  0:01:15   65

 reversed flow in 100 faces on pressure-outlet 10. 
   416  5.4071e-03  4.1249e-04  2.4446e-04  4.2841e-04  4.5467e-04  6.5563e-04  0:01:12   64

 reversed flow in 97 faces on pressure-outlet 10. 
   417  4.9720e-03  3.9238e-04  2.3378e-04  4.0665e-04  4.2726e-04  6.2978e-04  0:01:09   63

 reversed flow in 106 faces on pressure-outlet 10. 
   418  4.5691e-03  3.7374e-04  2.2327e-04  3.8698e-04  4.0288e-04  6.0501e-04  0:01:07   62

 reversed flow in 103 faces on pressure-outlet 10. 
   419  4.2081e-03  3.5658e-04  2.1434e-04  3.6839e-04  3.8079e-04  5.8271e-04  0:01:05   61

 reversed flow in 95 faces on pressure-outlet 10. 
   420  3.8763e-03  3.4056e-04  2.0554e-04  3.5153e-04  3.6091e-04  5.6108e-04  0:01:03   60

 reversed flow in 93 faces on pressure-outlet 10. 
   421  3.5849e-03  3.2591e-04  1.9801e-04  3.3568e-04  3.4264e-04  5.4153e-04  0:01:01   59

 reversed flow in 92 faces on pressure-outlet 10. 
  iter  continuity  x-velocity  y-velocity  z-velocity           k     epsilon     time/iter
   422  3.3128e-03  3.1203e-04  1.9047e-04  3.2133e-04  3.2604e-04  5.2240e-04  0:01:00   58

 reversed flow in 83 faces on pressure-outlet 10. 
   423  3.0725e-03  2.9937e-04  1.8411e-04  3.0763e-04  3.1062e-04  5.0520e-04  0:00:59   57

 reversed flow in 77 faces on pressure-outlet 10. 
   424  2.8480e-03  2.8725e-04  1.7770e-04  2.9523e-04  2.9649e-04  4.8818e-04  0:00:57   56

 reversed flow in 67 faces on pressure-outlet 10. 
   425  2.6530e-03  2.7625e-04  1.7220e-04  2.8340e-04  2.8325e-04  4.7292e-04  0:00:56   55

 reversed flow in 57 faces on pressure-outlet 10. 
   426  2.4723e-03  2.6570e-04  1.6669e-04  2.7261e-04  2.7104e-04  4.5766e-04  0:00:55   54

 reversed flow in 53 faces on pressure-outlet 10. 
   427  2.3214e-03  2.5603e-04  1.6194e-04  2.6227e-04  2.5954e-04  4.4410e-04  0:00:54   53

 reversed flow in 49 faces on pressure-outlet 10. 
   428  2.1771e-03  2.4673e-04  1.5730e-04  2.5287e-04  2.4890e-04  4.3036e-04  0:00:52   52

 reversed flow in 46 faces on pressure-outlet 10. 
   429  2.0583e-03  2.3818e-04  1.5322e-04  2.4391e-04  2.3881e-04  4.1826e-04  0:00:51   51

 reversed flow in 46 faces on pressure-outlet 10. 
   430  1.9408e-03  2.2996e-04  1.4925e-04  2.3571e-04  2.2946e-04  4.0587e-04  0:00:50   50

 reversed flow in 44 faces on pressure-outlet 10. 
   431  1.8449e-03  2.2234e-04  1.4566e-04  2.2783e-04  2.2055e-04  3.9520e-04  0:00:49   49

 reversed flow in 43 faces on pressure-outlet 10. 
   432  1.7470e-03  2.1501e-04  1.4220e-04  2.2052e-04  2.1227e-04  3.8393e-04  0:00:48   48

 reversed flow in 42 faces on pressure-outlet 10. 
  iter  continuity  x-velocity  y-velocity  z-velocity           k     epsilon     time/iter
   433  1.6683e-03  2.0814e-04  1.3900e-04  2.1360e-04  2.0436e-04  3.7453e-04  0:00:47   47

 reversed flow in 42 faces on pressure-outlet 10. 
   434  1.5847e-03  2.0164e-04  1.3601e-04  2.0703e-04  1.9698e-04  3.6424e-04  0:00:46   46

 reversed flow in 42 faces on pressure-outlet 10. 
   435  1.5182e-03  1.9547e-04  1.3316e-04  2.0082e-04  1.8991e-04  3.5600e-04  0:00:45   45

 reversed flow in 42 faces on pressure-outlet 10. 
   436  1.4482e-03  1.8965e-04  1.3058e-04  1.9492e-04  1.8332e-04  3.4668e-04  0:00:44   44

 reversed flow in 42 faces on pressure-outlet 10. 
   437  1.3927e-03  1.8410e-04  1.2804e-04  1.8937e-04  1.7698e-04  3.3938e-04  0:00:43   43

 reversed flow in 42 faces on pressure-outlet 10. 
   438  1.3353e-03  1.7889e-04  1.2581e-04  1.8404e-04  1.7106e-04  3.3101e-04  0:00:42   42

 reversed flow in 42 faces on pressure-outlet 10. 
   439  1.2908e-03  1.7389e-04  1.2351e-04  1.7901e-04  1.6534e-04  3.2447e-04  0:00:49   41

 reversed flow in 43 faces on pressure-outlet 10. 
   440  1.2443e-03  1.6915e-04  1.2161e-04  1.7418e-04  1.6000e-04  3.1680e-04  0:00:46   40

 reversed flow in 43 faces on pressure-outlet 10. 
   441  1.2070e-03  1.6447e-04  1.1953e-04  1.6960e-04  1.5483e-04  3.1092e-04  0:00:44   39

 reversed flow in 44 faces on pressure-outlet 10. 
   442  1.1654e-03  1.6005e-04  1.1792e-04  1.6521e-04  1.5000e-04  3.0398e-04  0:00:42   38

 reversed flow in 46 faces on pressure-outlet 10. 
   443  1.1306e-03  1.5572e-04  1.1606e-04  1.6103e-04  1.4531e-04  2.9877e-04  0:00:40   37

 reversed flow in 46 faces on pressure-outlet 10. 
  iter  continuity  x-velocity  y-velocity  z-velocity           k     epsilon     time/iter
   444  1.0933e-03  1.5165e-04  1.1457e-04  1.5698e-04  1.4093e-04  2.9245e-04  0:00:38   36

 reversed flow in 46 faces on pressure-outlet 10. 
   445  1.0619e-03  1.4764e-04  1.1276e-04  1.5311e-04  1.3666e-04  2.8780e-04  0:00:37   35

 reversed flow in 46 faces on pressure-outlet 10. 
   446  1.0269e-03  1.4388e-04  1.1132e-04  1.4934e-04  1.3268e-04  2.8211e-04  0:00:35   34

 reversed flow in 46 faces on pressure-outlet 10. 
   447  9.9764e-04  1.4020e-04  1.0957e-04  1.4575e-04  1.2878e-04  2.7799e-04  0:00:34   33

 reversed flow in 46 faces on pressure-outlet 10. 
   448  9.6658e-04  1.3678e-04  1.0823e-04  1.4224e-04  1.2515e-04  2.7284e-04  0:00:33   32

 reversed flow in 46 faces on pressure-outlet 10. 
   449  9.4209e-04  1.3345e-04  1.0658e-04  1.3888e-04  1.2158e-04  2.6914e-04  0:00:32   31

 reversed flow in 46 faces on pressure-outlet 10. 
   450  9.1563e-04  1.3028e-04  1.0537e-04  1.3558e-04  1.1826e-04  2.6445e-04  0:00:31   30

 reversed flow in 45 faces on pressure-outlet 10. 
   451  8.9430e-04  1.2714e-04  1.0384e-04  1.3244e-04  1.1499e-04  2.6107e-04  0:00:29   29

 reversed flow in 45 faces on pressure-outlet 10. 
   452  8.7086e-04  1.2417e-04  1.0275e-04  1.2934e-04  1.1194e-04  2.5677e-04  0:00:28   28

 reversed flow in 45 faces on pressure-outlet 10. 
   453  8.5197e-04  1.2126e-04  1.0130e-04  1.2637e-04  1.0894e-04  2.5366e-04  0:00:27   27

 reversed flow in 45 faces on pressure-outlet 10. 
   454  8.3094e-04  1.1847e-04  1.0031e-04  1.2341e-04  1.0614e-04  2.4973e-04  0:00:26   26

 reversed flow in 46 faces on pressure-outlet 10. 
  iter  continuity  x-velocity  y-velocity  z-velocity           k     epsilon     time/iter
   455  8.1382e-04  1.1577e-04  9.8943e-05  1.2061e-04  1.0337e-04  2.4687e-04  0:00:25   25

 reversed flow in 46 faces on pressure-outlet 10. 
   456  7.9447e-04  1.1319e-04  9.8050e-05  1.1787e-04  1.0079e-04  2.4326e-04  0:00:24   24

 reversed flow in 46 faces on pressure-outlet 10. 
   457  7.7948e-04  1.1068e-04  9.6758e-05  1.1525e-04  9.8240e-05  2.4066e-04  0:00:23   23

 reversed flow in 46 faces on pressure-outlet 10. 
   458  7.6163e-04  1.0829e-04  9.5954e-05  1.1262e-04  9.5861e-05  2.3732e-04  0:00:22   22

 reversed flow in 46 faces on pressure-outlet 10. 
   459  7.4734e-04  1.0594e-04  9.4711e-05  1.1008e-04  9.3504e-05  2.3493e-04  0:00:21   21

 reversed flow in 46 faces on pressure-outlet 10. 
   460  7.3047e-04  1.0370e-04  9.3970e-05  1.0765e-04  9.1307e-05  2.3182e-04  0:00:20   20

 reversed flow in 46 faces on pressure-outlet 10. 
   461  7.1697e-04  1.0151e-04  9.2771e-05  1.0528e-04  8.9126e-05  2.2961e-04  0:00:19   19

 reversed flow in 46 faces on pressure-outlet 10. 
   462  7.0137e-04  9.9430e-05  9.2090e-05  1.0304e-04  8.7094e-05  2.2671e-04  0:00:18   18

 reversed flow in 46 faces on pressure-outlet 10. 
   463  6.8912e-04  9.7396e-05  9.0948e-05  1.0082e-04  8.5072e-05  2.2467e-04  0:00:17   17

 reversed flow in 47 faces on pressure-outlet 10. 
   464  6.7479e-04  9.5438e-05  9.0325e-05  9.8738e-05  8.3188e-05  2.2197e-04  0:00:16   16

 reversed flow in 47 faces on pressure-outlet 10. 
   465  6.6395e-04  9.3545e-05  8.9241e-05  9.6648e-05  8.1310e-05  2.2010e-04  0:00:18   15

 reversed flow in 47 faces on pressure-outlet 10. 
  iter  continuity  x-velocity  y-velocity  z-velocity           k     epsilon     time/iter
   466  6.5073e-04  9.1722e-05  8.8671e-05  9.4703e-05  7.9561e-05  2.1760e-04  0:00:16   14

 reversed flow in 47 faces on pressure-outlet 10. 
   467  6.4096e-04  8.9981e-05  8.7645e-05  9.2733e-05  7.7816e-05  2.1586e-04  0:00:15   13

 reversed flow in 47 faces on pressure-outlet 10. 
   468  6.2890e-04  8.8256e-05  8.7129e-05  9.0938e-05  7.6190e-05  2.1348e-04  0:00:13   12

 reversed flow in 47 faces on pressure-outlet 10. 
   469  6.2034e-04  8.6628e-05  8.6156e-05  8.9099e-05  7.4566e-05  2.1183e-04  0:00:12   11

 reversed flow in 47 faces on pressure-outlet 10. 
   470  6.0943e-04  8.5005e-05  8.5702e-05  8.7427e-05  7.3050e-05  2.0953e-04  0:00:11   10

 reversed flow in 47 faces on pressure-outlet 10. 
   471  6.0145e-04  8.3486e-05  8.4779e-05  8.5687e-05  7.1533e-05  2.0793e-04  0:00:09    9

 reversed flow in 47 faces on pressure-outlet 10. 
   472  5.9114e-04  8.1953e-05  8.4372e-05  8.4115e-05  7.0117e-05  2.0572e-04  0:00:08    8

 reversed flow in 47 faces on pressure-outlet 10. 
   473  5.8425e-04  8.0521e-05  8.3490e-05  8.2507e-05  6.8702e-05  2.0421e-04  0:00:07    7

 reversed flow in 46 faces on pressure-outlet 10. 
   474  5.7537e-04  7.9080e-05  8.3127e-05  8.1068e-05  6.7380e-05  2.0210e-04  0:00:06    6

 reversed flow in 46 faces on pressure-outlet 10. 
   475  5.6914e-04  7.7731e-05  8.2306e-05  7.9576e-05  6.6058e-05  2.0069e-04  0:00:05    5

 reversed flow in 46 faces on pressure-outlet 10. 
   476  5.6120e-04  7.6369e-05  8.1997e-05  7.8224e-05  6.4821e-05  1.9869e-04  0:00:04    4

 reversed flow in 46 faces on pressure-outlet 10. 
  iter  continuity  x-velocity  y-velocity  z-velocity           k     epsilon     time/iter
   477  5.5566e-04  7.5091e-05  8.1222e-05  7.6801e-05  6.3580e-05  1.9736e-04  0:00:03    3

 reversed flow in 46 faces on pressure-outlet 10. 
   478  5.4853e-04  7.3803e-05  8.0923e-05  7.5500e-05  6.2422e-05  1.9545e-04  0:00:02    2

 reversed flow in 46 faces on pressure-outlet 10. 
   479  5.4292e-04  7.2572e-05  8.0162e-05  7.4168e-05  6.1260e-05  1.9417e-04  0:00:01    1

 reversed flow in 46 faces on pressure-outlet 10. 
   480  5.3676e-04  7.1365e-05  7.9915e-05  7.2935e-05  6.0173e-05  1.9232e-04  0:00:00    0
Flow time = 0.3s, time step = 6
94 more time steps

Updating solution at time level N... done.
  iter  continuity  x-velocity  y-velocity  z-velocity           k     epsilon     time/iter
   480  5.3676e-04  7.1365e-05  7.9915e-05  7.2935e-05  6.0173e-05  1.9232e-04  0:01:21   80

 reversed flow in 46 faces on pressure-outlet 10. 
   481  8.8855e-03  8.6193e-04  3.9334e-04  8.9464e-04  2.7616e-03  1.9124e-03  0:01:19   79

 reversed flow in 27 faces on pressure-outlet 10. 
[...]

 reversed flow in 86 faces on pressure-outlet 10. 
  1013  4.8113e-04  2.5397e-05  7.3161e-05  2.2847e-05  2.1253e-05  7.5232e-05  0:00:27   27

 reversed flow in 84 faces on pressure-outlet 10. 
  1014  4.7507e-04  2.4728e-05  7.2851e-05  2.2282e-05  2.0542e-05  7.4491e-05  0:00:26   26

 reversed flow in 84 faces on pressure-outlet 10. 
  iter  continuity  x-velocity  y-velocity  z-velocity           k     epsilon     time/iter
  1015  4.6520e-04  2.3947e-05  7.2178e-05  2.1551e-05  1.9869e-05  7.3816e-05  0:00:25   25

 reversed flow in 85 faces on pressure-outlet 10. 
  1016  4.5672e-04  2.3341e-05  7.1863e-05  2.0941e-05  1.9213e-05  7.2895e-05  0:00:24   24

 reversed flow in 84 faces on pressure-outlet 10. 
  1017  4.4808e-04  2.2751e-05  7.1190e-05  2.0285e-05  1.8597e-05  7.1963e-05  0:00:23   23

 reversed flow in 85 faces on pressure-outlet 10. 
  1018  4.4161e-04  2.2342e-05  7.0873e-05  1.9759e-05  1.8016e-05  7.1434e-05  0:00:22   22

 reversed flow in 83 faces on pressure-outlet 10. 
  1019  4.3356e-04  2.1753e-05  7.0241e-05  1.9253e-05  1.7461e-05  7.0844e-05  0:00:21   21

 reversed flow in 83 faces on pressure-outlet 10. 
  1020  4.2884e-04  2.1354e-05  6.9982e-05  1.8806e-05  1.6927e-05  7.0171e-05  0:00:20   20

 reversed flow in 83 faces on pressure-outlet 10. 
  1021  4.2379e-04  2.0961e-05  6.9419e-05  1.8396e-05  1.6424e-05  6.9373e-05  0:00:19   19

 reversed flow in 83 faces on pressure-outlet 10. 
  1022  4.2131e-04  2.0734e-05  6.9213e-05  1.8053e-05  1.5959e-05  6.9134e-05  0:00:18   18

 reversed flow in 83 faces on pressure-outlet 10. 
  1023  4.1725e-04  2.0218e-05  6.8720e-05  1.7694e-05  1.5505e-05  6.8703e-05  0:00:17   17

 reversed flow in 83 faces on pressure-outlet 10. 
  1024  4.1551e-04  1.9887e-05  6.8578e-05  1.7358e-05  1.5056e-05  6.8218e-05  0:00:16   16

 reversed flow in 83 faces on pressure-outlet 10. 
  1025  4.1127e-04  1.9413e-05  6.8136e-05  1.7004e-05  1.4634e-05  6.7469e-05  0:00:15   15

 reversed flow in 84 faces on pressure-outlet 10. 
  iter  continuity  x-velocity  y-velocity  z-velocity           k     epsilon     time/iter
  1026  4.0795e-04  1.9136e-05  6.8033e-05  1.6681e-05  1.4244e-05  6.7259e-05  0:00:17   14

 reversed flow in 83 faces on pressure-outlet 10. 
  1027  4.0333e-04  1.8656e-05  6.7598e-05  1.6318e-05  1.3863e-05  6.6831e-05  0:00:15   13

 reversed flow in 84 faces on pressure-outlet 10. 
  1028  4.0064e-04  1.8311e-05  6.7498e-05  1.6018e-05  1.3491e-05  6.6331e-05  0:00:14   12

 reversed flow in 83 faces on pressure-outlet 10. 
  1029  3.9740e-04  1.8003e-05  6.7063e-05  1.5659e-05  1.3131e-05  6.5608e-05  0:00:12   11

 reversed flow in 83 faces on pressure-outlet 10. 
  1030  3.9525e-04  1.7776e-05  6.6990e-05  1.5441e-05  1.2801e-05  6.5321e-05  0:00:11   10

 reversed flow in 84 faces on pressure-outlet 10. 
  1031  3.9117e-04  1.7498e-05  6.6569e-05  1.5118e-05  1.2479e-05  6.4987e-05  0:00:10    9

 reversed flow in 83 faces on pressure-outlet 10. 
  1032  3.8857e-04  1.7242e-05  6.6504e-05  1.4917e-05  1.2169e-05  6.4462e-05  0:00:08    8

 reversed flow in 83 faces on pressure-outlet 10. 
  1033  3.8532e-04  1.7160e-05  6.6096e-05  1.4616e-05  1.1869e-05  6.3861e-05  0:00:07    7

 reversed flow in 83 faces on pressure-outlet 10. 
  1034  3.8384e-04  1.7026e-05  6.6066e-05  1.4500e-05  1.1600e-05  6.3552e-05  0:00:06    6

 reversed flow in 83 faces on pressure-outlet 10. 
  1035  3.8175e-04  1.6837e-05  6.5705e-05  1.4183e-05  1.1333e-05  6.3286e-05  0:00:05    5

 reversed flow in 83 faces on pressure-outlet 10. 
  1036  3.8093e-04  1.6527e-05  6.5709e-05  1.4033e-05  1.1075e-05  6.2735e-05  0:00:04    4

 reversed flow in 79 faces on pressure-outlet 10. 
  iter  continuity  x-velocity  y-velocity  z-velocity           k     epsilon     time/iter
  1037  3.7943e-04  1.6384e-05  6.5373e-05  1.3709e-05  1.0830e-05  6.2224e-05  0:00:03    3

 reversed flow in 78 faces on pressure-outlet 10. 
  1038  3.7784e-04  1.5969e-05  6.5381e-05  1.3566e-05  1.0607e-05  6.2002e-05  0:00:02    2

 reversed flow in 77 faces on pressure-outlet 10. 
  1039  3.7398e-04  1.5663e-05  6.5033e-05  1.3225e-05  1.0384e-05  6.1831e-05  0:00:01    1

 reversed flow in 77 faces on pressure-outlet 10. 
  1040  3.6995e-04  1.5281e-05  6.4991e-05  1.2982e-05  1.0165e-05  6.1394e-05  0:00:00    0
Flow time = 0.65s, time step = 13
87 more time steps

Updating solution at time level N... done.
  iter  continuity  x-velocity  y-velocity  z-velocity           k     epsilon     time/iter
  1040  3.6995e-04  1.5281e-05  6.4991e-05  1.2982e-05  1.0165e-05  6.1394e-05  0:01:21   80

 reversed flow in 77 faces on pressure-outlet 10. 
  1041  3.7319e-03  2.5857e-04  2.5019e-04  2.3529e-04  2.1318e-03  6.3594e-04  0:01:20   79
  1042  3.7991e-03  2.3847e-04  2.4708e-04  2.1919e-04  1.5196e-03  5.1661e-04  0:01:18   78
  1043  3.5011e-03  2.1169e-04  2.2587e-04  1.9507e-04  1.1277e-03  4.2972e-04  0:01:17   77
  1044  3.4056e-03  1.9172e-04  2.1259e-04  1.7762e-04  8.6072e-04  3.5820e-04  0:01:16   76
  1045  3.2278e-03  1.7451e-04  2.0020e-04  1.6259e-04  6.7568e-04  3.0945e-04  0:01:15   75
  1046  3.0152e-03  1.5984e-04  1.8899e-04  1.4899e-04  5.4288e-04  2.7453e-04  0:01:14   74
  1047  2.8035e-03  1.4680e-04  1.7858e-04  1.3724e-04  4.4524e-04  2.4785e-04  0:01:13   73

 reversed flow in 4 faces on pressure-outlet 10. 
  1048  2.5923e-03  1.3570e-04  1.6957e-04  1.2676e-04  3.7192e-04  2.2689e-04  0:01:12   72

 reversed flow in 33 faces on pressure-outlet 10. 
  1049  2.3942e-03  1.2570e-04  1.6120e-04  1.1795e-04  3.1574e-04  2.0963e-04  0:01:11   71

 reversed flow in 56 faces on pressure-outlet 10. 
  1050  2.1999e-03  1.1706e-04  1.5379e-04  1.0992e-04  2.7182e-04  1.9605e-04  0:01:10   70

 reversed flow in 119 faces on pressure-outlet 10. 
  iter  continuity  x-velocity  y-velocity  z-velocity           k     epsilon     time/iter
  1051  2.0208e-03  1.0905e-04  1.4676e-04  1.0302e-04  2.3681e-04  1.8449e-04  0:01:09   69

 reversed flow in 123 faces on pressure-outlet 10. 
  1052  1.8532e-03  1.0210e-04  1.4061e-04  9.6584e-05  2.0843e-04  1.7455e-04  0:01:08   68

 reversed flow in 123 faces on pressure-outlet 10. 
  1053  1.7061e-03  9.5727e-05  1.3472e-04  9.1007e-05  1.8506e-04  1.6568e-04  0:01:07   67

 reversed flow in 123 faces on pressure-outlet 10. 
  1054  1.5778e-03  9.0273e-05  1.2986e-04  8.5831e-05  1.6564e-04  1.5842e-04  0:01:06   66

 reversed flow in 123 faces on pressure-outlet 10. 
  1055  1.4658e-03  8.5099e-05  1.2515e-04  8.1247e-05  1.4920e-04  1.5176e-04  0:01:05   65

 reversed flow in 123 faces on pressure-outlet 10. 
  1056  1.3674e-03  8.0644e-05  1.2126e-04  7.6931e-05  1.3520e-04  1.4568e-04  0:01:04   64

 reversed flow in 123 faces on pressure-outlet 10. 
  1057  1.2839e-03  7.6477e-05  1.1746e-04  7.3052e-05  1.2309e-04  1.3990e-04  0:01:03   63

 reversed flow in 123 faces on pressure-outlet 10. 
  1058  1.2076e-03  7.2882e-05  1.1432e-04  6.9447e-05  1.1298e-04  1.3841e-04  0:01:02   62

 reversed flow in 123 faces on pressure-outlet 10. 
  1059  1.1398e-03  6.9205e-05  1.1118e-04  6.6101e-05  1.0399e-04  1.3514e-04  0:01:01   61

 reversed flow in 123 faces on pressure-outlet 10. 
  1060  1.0809e-03  6.5982e-05  1.0859e-04  6.3046e-05  9.5987e-05  1.3205e-04  0:01:00   60

 reversed flow in 123 faces on pressure-outlet 10. 
  1061  1.0285e-03  6.2890e-05  1.0589e-04  6.0179e-05  8.8806e-05  1.2851e-04  0:00:59   59

 reversed flow in 121 faces on pressure-outlet 10. 
  iter  continuity  x-velocity  y-velocity  z-velocity           k     epsilon     time/iter
  1062  9.8299e-04  6.0095e-05  1.0372e-04  5.7639e-05  8.2373e-05  1.2567e-04  0:00:58   58

 reversed flow in 116 faces on pressure-outlet 10. 
  1063  9.3933e-04  5.7161e-05  1.0137e-04  5.5103e-05  7.6541e-05  1.2246e-04  0:00:57   57

 reversed flow in 111 faces on pressure-outlet 10. 
  1064  9.0056e-04  5.4592e-05  9.9477e-05  5.2800e-05  7.1263e-05  1.1945e-04  0:00:56   56

 reversed flow in 114 faces on pressure-outlet 10. 
  1065  8.6137e-04  5.2151e-05  9.7335e-05  5.0502e-05  6.6473e-05  1.1609e-04  0:00:55   55

 reversed flow in 109 faces on pressure-outlet 10. 
  1066  8.2744e-04  5.0062e-05  9.5612e-05  4.8452e-05  6.2144e-05  1.1342e-04  0:00:54   54

 reversed flow in 108 faces on pressure-outlet 10. 
  1067  7.9200e-04  4.7882e-05  9.3695e-05  4.6426e-05  5.8195e-05  1.1054e-04  0:00:53   53

 reversed flow in 104 faces on pressure-outlet 10. 
  1068  7.6201e-04  4.6013e-05  9.2195e-05  4.4599e-05  5.4609e-05  1.0776e-04  0:00:52   52

 reversed flow in 105 faces on pressure-outlet 10. 
  1069  7.3166e-04  4.4169e-05  9.0515e-05  4.2822e-05  5.1358e-05  1.0489e-04  0:01:01   51

 reversed flow in 104 faces on pressure-outlet 10. 
  1070  7.0828e-04  4.2657e-05  8.9218e-05  4.1201e-05  4.8429e-05  1.0257e-04  0:00:58   50

 reversed flow in 102 faces on pressure-outlet 10. 
  1071  6.8208e-04  4.0901e-05  8.7719e-05  3.9637e-05  4.5761e-05  1.0023e-04  0:00:55   49

 reversed flow in 98 faces on pressure-outlet 10. 
  1072  6.6255e-04  3.9390e-05  8.6585e-05  3.8146e-05  4.3325e-05  9.7803e-05  0:00:53   48

 reversed flow in 99 faces on pressure-outlet 10. 
  iter  continuity  x-velocity  y-velocity  z-velocity           k     epsilon     time/iter
  1073  6.4109e-04  3.7846e-05  8.5239e-05  3.6752e-05  4.1097e-05  9.5389e-05  0:00:51   47

 reversed flow in 97 faces on pressure-outlet 10. 
  1074  6.2507e-04  3.6592e-05  8.4279e-05  3.5456e-05  3.9065e-05  9.3381e-05  0:00:49   46

 reversed flow in 96 faces on pressure-outlet 10. 
  1075  6.0566e-04  3.5097e-05  8.3089e-05  3.4212e-05  3.7185e-05  9.1406e-05  0:00:47   45

 reversed flow in 95 faces on pressure-outlet 10. 
  1076  5.9204e-04  3.3914e-05  8.2246e-05  3.2998e-05  3.5439e-05  8.9319e-05  0:00:46   44

 reversed flow in 95 faces on pressure-outlet 10. 
  1077  5.7464e-04  3.2673e-05  8.1151e-05  3.1831e-05  3.3814e-05  8.7267e-05  0:00:44   43

 reversed flow in 93 faces on pressure-outlet 10. 
  1078  5.6345e-04  3.1744e-05  8.0411e-05  3.0750e-05  3.2316e-05  8.5611e-05  0:00:43   42

 reversed flow in 94 faces on pressure-outlet 10. 
  1079  5.4789e-04  3.0624e-05  7.9421e-05  2.9696e-05  3.0911e-05  8.4031e-05  0:00:42   41

 reversed flow in 92 faces on pressure-outlet 10. 
  1080  5.3879e-04  2.9820e-05  7.8779e-05  2.8731e-05  2.9599e-05  8.2427e-05  0:00:41   40

 reversed flow in 91 faces on pressure-outlet 10. 
  1081  5.2538e-04  2.8939e-05  7.7893e-05  2.7774e-05  2.8368e-05  8.0861e-05  0:00:40   39

 reversed flow in 90 faces on pressure-outlet 10. 
  1082  5.1760e-04  2.8347e-05  7.7337e-05  2.6970e-05  2.7228e-05  7.9664e-05  0:00:38   38

 reversed flow in 88 faces on pressure-outlet 10. 
  1083  5.0591e-04  2.7506e-05  7.6528e-05  2.6110e-05  2.6152e-05  7.8527e-05  0:00:37   37

 reversed flow in 87 faces on pressure-outlet 10. 
  iter  continuity  x-velocity  y-velocity  z-velocity           k     epsilon     time/iter
  1084  5.0008e-04  2.6835e-05  7.6039e-05  2.5403e-05  2.5137e-05  7.7306e-05  0:00:36   36

 reversed flow in 86 faces on pressure-outlet 10. 
  1085  4.9131e-04  2.6112e-05  7.5304e-05  2.4610e-05  2.4176e-05  7.6070e-05  0:00:35   35

 reversed flow in 86 faces on pressure-outlet 10. 
  1086  4.8692e-04  2.5450e-05  7.4890e-05  2.4031e-05  2.3282e-05  7.5171e-05  0:00:34   34

 reversed flow in 86 faces on pressure-outlet 10. 
  1087  4.7919e-04  2.4564e-05  7.4234e-05  2.3313e-05  2.2432e-05  7.4360e-05  0:00:33   33

 reversed flow in 85 faces on pressure-outlet 10. 
  1088  4.7528e-04  2.3876e-05  7.3868e-05  2.2734e-05  2.1625e-05  7.3509e-05  0:00:32   32

 reversed flow in 85 faces on pressure-outlet 10. 
  1089  4.6728e-04  2.3294e-05  7.3215e-05  2.1989e-05  2.0860e-05  7.2542e-05  0:00:31   31

 reversed flow in 85 faces on pressure-outlet 10. 
  1090  4.6259e-04  2.2823e-05  7.2857e-05  2.1448e-05  2.0142e-05  7.1928e-05  0:00:30   30

 reversed flow in 84 faces on pressure-outlet 10. 
  1091  4.5413e-04  2.2271e-05  7.2218e-05  2.0768e-05  1.9459e-05  7.1185e-05  0:00:29   29

 reversed flow in 84 faces on pressure-outlet 10. 
  1092  4.5010e-04  2.1727e-05  7.1892e-05  2.0286e-05  1.8810e-05  7.0518e-05  0:00:28   28

 reversed flow in 84 faces on pressure-outlet 10. 
  1093  4.4316e-04  2.1226e-05  7.1291e-05  1.9744e-05  1.8195e-05  6.9622e-05  0:00:27   27

 reversed flow in 85 faces on pressure-outlet 10. 
  1094  4.4038e-04  2.0846e-05  7.1016e-05  1.9304e-05  1.7616e-05  6.9209e-05  0:00:26   26

 reversed flow in 85 faces on pressure-outlet 10. 
  iter  continuity  x-velocity  y-velocity  z-velocity           k     epsilon     time/iter
  1095  4.3336e-04  2.0350e-05  7.0464e-05  1.8804e-05  1.7059e-05  6.8531e-05  0:00:25   25

 reversed flow in 85 faces on pressure-outlet 10. 
  1096  4.3006e-04  1.9845e-05  7.0240e-05  1.8363e-05  1.6524e-05  6.8051e-05  0:00:24   24

 reversed flow in 85 faces on pressure-outlet 10. 
  1097  4.2360e-04  1.9325e-05  6.9705e-05  1.7893e-05  1.6010e-05  6.7267e-05  0:00:23   23

 reversed flow in 84 faces on pressure-outlet 10. 
  1098  4.2077e-04  1.8924e-05  6.9549e-05  1.7492e-05  1.5530e-05  6.6919e-05  0:00:22   22

 reversed flow in 85 faces on pressure-outlet 10. 
  1099  4.1401e-04  1.8363e-05  6.9044e-05  1.7079e-05  1.5063e-05  6.6419e-05  0:00:21   21

 reversed flow in 84 faces on pressure-outlet 10. 
  1100  4.1119e-04  1.7947e-05  6.8904e-05  1.6689e-05  1.4617e-05  6.5859e-05  0:00:20   20

 reversed flow in 85 faces on pressure-outlet 10. 
  1101  4.0492e-04  1.7515e-05  6.8401e-05  1.6315e-05  1.4190e-05  6.5281e-05  0:00:19   19

 reversed flow in 84 faces on pressure-outlet 10. 
  1102  4.0281e-04  1.7250e-05  6.8283e-05  1.5974e-05  1.3793e-05  6.4788e-05  0:00:18   18

 reversed flow in 84 faces on pressure-outlet 10. 
  1103  3.9729e-04  1.6844e-05  6.7806e-05  1.5639e-05  1.3412e-05  6.4484e-05  0:00:17   17

 reversed flow in 84 faces on pressure-outlet 10. 
  1104  3.9572e-04  1.6671e-05  6.7718e-05  1.5334e-05  1.3052e-05  6.3938e-05  0:00:16   16

 reversed flow in 83 faces on pressure-outlet 10. 
  1105  3.9068e-04  1.6447e-05  6.7279e-05  1.5007e-05  1.2707e-05  6.3617e-05  0:00:15   15

 reversed flow in 81 faces on pressure-outlet 10. 
  iter  continuity  x-velocity  y-velocity  z-velocity           k     epsilon     time/iter
  1106  3.8909e-04  1.6387e-05  6.7227e-05  1.4791e-05  1.2388e-05  6.3167e-05  0:00:14   14

 reversed flow in 80 faces on pressure-outlet 10. 
  1107  3.8499e-04  1.6181e-05  6.6838e-05  1.4526e-05  1.2077e-05  6.3021e-05  0:00:13   13

 reversed flow in 79 faces on pressure-outlet 10. 
  1108  3.8446e-04  1.6042e-05  6.6819e-05  1.4322e-05  1.1778e-05  6.2380e-05  0:00:12   12

 reversed flow in 79 faces on pressure-outlet 10. 
  1109  3.8197e-04  1.5852e-05  6.6490e-05  1.4077e-05  1.1491e-05  6.2095e-05  0:00:11   11

 reversed flow in 77 faces on pressure-outlet 10. 
  1110  3.8192e-04  1.5678e-05  6.6501e-05  1.3935e-05  1.1221e-05  6.1543e-05  0:00:10   10

 reversed flow in 77 faces on pressure-outlet 10. 
  1111  3.7919e-04  1.5228e-05  6.6206e-05  1.3694e-05  1.0961e-05  6.1420e-05  0:00:11    9

 reversed flow in 77 faces on pressure-outlet 10. 
  1112  3.7782e-04  1.4913e-05  6.6202e-05  1.3486e-05  1.0705e-05  6.0776e-05  0:00:09    8

 reversed flow in 77 faces on pressure-outlet 10. 
  1113  3.7391e-04  1.4662e-05  6.5892e-05  1.3144e-05  1.0459e-05  6.0541e-05  0:00:08    7

 reversed flow in 77 faces on pressure-outlet 10. 
  1114  3.7081e-04  1.4471e-05  6.5830e-05  1.2889e-05  1.0231e-05  6.0052e-05  0:00:07    6

 reversed flow in 77 faces on pressure-outlet 10. 
  1115  3.6632e-04  1.4229e-05  6.5486e-05  1.2584e-05  1.0010e-05  5.9890e-05  0:00:05    5

 reversed flow in 77 faces on pressure-outlet 10. 
  1116  3.6356e-04  1.4024e-05  6.5398e-05  1.2382e-05  9.7927e-06  5.9392e-05  0:00:04    4

 reversed flow in 77 faces on pressure-outlet 10. 
  iter  continuity  x-velocity  y-velocity  z-velocity           k     epsilon     time/iter
  1117  3.6024e-04  1.3887e-05  6.5065e-05  1.2173e-05  9.5861e-06  5.9029e-05  0:00:03    3

 reversed flow in 77 faces on pressure-outlet 10. 
  1118  3.5907e-04  1.3783e-05  6.5014e-05  1.2025e-05  9.3916e-06  5.8662e-05  0:00:02    2

 reversed flow in 77 faces on pressure-outlet 10. 
  1119  3.5644e-04  1.3677e-05  6.4718e-05  1.1866e-05  9.2101e-06  5.8455e-05  0:00:01    1

 reversed flow in 76 faces on pressure-outlet 10. 
  1120  3.5563e-04  1.3483e-05  6.4714e-05  1.1708e-05  9.0300e-06  5.8105e-05  0:00:00    0
Flow time = 0.7000000000000001s, time step = 14
86 more time steps

Updating solution at time level N... done.
  iter  continuity  x-velocity  y-velocity  z-velocity           k     epsilon     time/iter
  1120  3.5563e-04  1.3483e-05  6.4714e-05  1.1708e-05  9.0300e-06  5.8105e-05  0:01:22   80

 reversed flow in 76 faces on pressure-outlet 10. 
  1121  3.2940e-03  2.2352e-04  2.2814e-04  2.0117e-04  1.9665e-03  5.4063e-04  0:01:21   79

 reversed flow in 32 faces on pressure-outlet 10. 
  1122  3.3183e-03  2.0446e-04  2.2178e-04  1.8759e-04  1.3801e-03  4.3590e-04  0:01:19   78
  1123  3.0861e-03  1.8003e-04  2.0244e-04  1.6643e-04  1.0104e-03  3.6230e-04  0:01:18   77
Done.
Writing "| gzip -2cf > SolutionMonitor.gz"...
Writing temporary file C:\\Users\\emellusi\\AppData\\Local\\Temp\\flntgz-84764 ...
Done.

(cx-gui-do cx-set-list-tree-selections "NavigationPane*List_Tree1" (list ))
(cx-gui-do cx-set-list-tree-selections "NavigationPane*List_Tree1" (list ))
Writing "| gzip -2cf > FFF-6.cas.gz"...
Writing temporary file C:\\Users\\emellusi\\AppData\\Local\\Temp\\flntgz-84765 ...
  418046 tetrahedral cells, zone  4, binary.
   78143 tetrahedral cells, zone  5, binary.
  418046 cell partition ids, zone  4, 5 partitions, binary.
   78143 cell partition ids, zone  5, 5 partitions, binary.
      33 mixed wall faces, zone 14, binary.
     140 mixed wall faces, zone 13, binary.
   21489 mixed interior faces, zone  7, binary.
   22892 triangular wall faces, zone  1, binary.
  819880 triangular interior faces, zone  2, binary.
  152779 triangular interior faces, zone  3, binary.
    4489 triangular wall faces, zone  8, binary.
     312 triangular velocity-inlet faces, zone  9, binary.
     123 triangular pressure-outlet faces, zone 10, binary.
    9532 triangular interface faces, zone 11, binary.
    2090 triangular interface faces, zone 12, binary.
      33 wall parent pointers, zone 14, binary.
     140 wall parent pointers, zone 13, binary.
   21489 interior parent pointers, zone  7, binary.
      33 interface metric data, zone 14, binary.
     140 interface metric data, zone 13, binary.
   21489 interface metric data, zone  7, binary.
   92834 nodes, binary.
   92834 node flags, binary.
Done.


Performance Timer for 1123 iterations on 5 compute nodes
  Average wall-clock time per iteration:              1.005 sec
  Global reductions per iteration:                       62 ops
  Global reductions time per iteration:               0.000 sec (0.0%)
  Message count per iteration:                         2155 messages
  Data transfer per iteration:                       15.034 MB
  LE solves per iteration:                                6 solves
  LE wall-clock time per iteration:                   0.302 sec (30.0%)
  LE global solves per iteration:                         2 solves
  LE global wall-clock time per iteration:            0.001 sec (0.1%)
  LE global matrix maximum size:                        26
  AMG cycles per iteration:                           8.803 cycles
  Relaxation sweeps per iteration:                       75 sweeps
  Relaxation exchanges per iteration:                     0 exchanges
  Time-step updates per iteration:                     0.01 updates
  Time-step wall-clock time per iteration:            0.000 sec (0.0%)

  Total wall-clock time:                           1128.915 sec

