
Build Time: Apr 11 2017 18:02:21 
Executable Path: C:/PROGRA~1/ANSYSI~1/v181/fluent/ntbin/win64/fluent.exe

-------------------------------------------------------------------------------
ID    Hostname        Core  O.S.         PID    Vendor                   
-------------------------------------------------------------------------------
n3    open-labM1-032  4/4  Windows-x64  12748  Intel(R) Xeon(R) E5-2698 
n2    open-labM1-032  3/4  Windows-x64  8696   Intel(R) Xeon(R) E5-2698 
n1    open-labM1-032  2/4  Windows-x64  14040  Intel(R) Xeon(R) E5-2698 
n0*   open-labM1-032  1/4  Windows-x64  12500  Intel(R) Xeon(R) E5-2698 
host  open-labM1-032       Windows-x64  864    Intel(R) Xeon(R) E5-2698 

MPI Option Selected: ibmmpi
Selected system interconnect: default
-------------------------------------------------------------------------------

open-labM1-032 is already loaded (34.0503%).                       Process affinity not being set.
Reading "\"| gunzip -c \\"\\winfiles.wincoe.coe.neu.edu\cifs.homedir\Win10Files\Documents\Newest Ansys project\March 31 Stage 1 Rocket Body Front\Stage 1 Front_files\dp0\FFF\Fluent\FFF-Setup-Output.cas.gz\\"\""...
Buffering for file scan...



  319038 mixed cells, zone  2, binary.
  319038 cell partition ids, zone  2, 4 partitions, binary.
  635479 2D interior faces, zone  1, binary.
     999 2D interior faces, zone 18, binary.
    1255 2D wall faces, zone  6, binary.
      95 2D axis faces, zone  7, binary.
    1529 2D pressure-far-field faces, zone  8, binary.
     200 2D pressure-far-field faces, zone  9, binary.
  320520 nodes, binary.
  320520 node flags, binary.

Building...
     mesh
	distributing mesh
		parts....,
		faces....,
		nodes....,
		cells....,
        bandwidth reduction using Reverse Cuthill-McKee: 80463/348 = 231.216
     materials,
     interface,
     domains,
	mixture
     zones,
	axis
	rocket_body
	interior-surface_body
	nothing
	in
	out
	surface_bodySetting surface_body (mixture) ... Done.
 Setting zone id of surface_body to 2.
 Setting zone id of out to 9.
 Setting zone id of in to 8.
 Setting zone id of nothing to 18.
 Setting zone id of interior-surface_body to 1.
 Setting zone id of rocket_body to 6.
 Setting zone id of axis to 7.
Done.
Setting surface_body (mixture) ... Done.
Setting out (mixture) ... Done.
Setting in (mixture) ... Done.
Setting nothing (mixture) ... Done.
Setting interior-surface_body (mixture) ... Done.
Setting rocket_body (mixture) ... Done.
Setting axis (mixture) ... Done.

     parallel,
Done.

Preparing mesh for display...

Error: No journal response to dialog box message:'Surface groupings have changed. This has
resulted in surface list selection changes
for the following graphics objects.
contour-1
'
. Internally, cancelled the dialog.
Done.

Setting Post Processing and Surfaces information ...	 Done.
Reading "\"| gunzip -c \\"\\winfiles.wincoe.coe.neu.edu\cifs.homedir\Win10Files\Documents\Newest Ansys project\March 31 Stage 1 Rocket Body Front\Stage 1 Front_files\dp0\FFF\Fluent\FFF-1-00000.dat.gz\\"\""...


Parallel variables...
Done.
  iter  continuity  x-velocity  y-velocity      energy         nut     time/iter
     1  1.0000e+00  1.3912e-07  5.8344e-08  2.0682e-07  6.2611e-06  1:23:19 4999
     2  8.8873e-01  4.0804e-06  5.5037e-06  2.0779e-07  3.3587e-06  1:23:18 4998
     3  4.5451e-01  1.6316e-06  3.2298e-06  1.4925e-07  2.2061e-06  1:23:17 4997
     4  2.9746e-01  1.0543e-06  1.7539e-06  9.6731e-08  1.5639e-06  1:23:16 4996
     5  2.4415e-01  8.6183e-07  1.3815e-06  6.2335e-08  1.3586e-06  1:23:15 4995
     6  2.0498e-01  7.3660e-07  1.0877e-06  4.0517e-08  1.2679e-06  1:06:35 4994
     7  1.6820e-01  6.9621e-07  9.8252e-07  3.0547e-08  1.1482e-06  1:09:54 4993
     8  1.4381e-01  5.8124e-07  8.0396e-07  2.1565e-08  1.0674e-06  1:12:33 4992
     9  1.2650e-01  6.0004e-07  7.8232e-07  1.7787e-08  1.0065e-06  0:58:02 4991
    10  1.1034e-01  5.1397e-07  6.5051e-07  1.5837e-08  9.5717e-07  1:03:03 4990
    11  9.6225e-02  5.5507e-07  6.5875e-07  1.5693e-08  9.1708e-07  1:07:03 4989
  iter  continuity  x-velocity  y-velocity      energy         nut     time/iter
    12  8.5121e-02  5.0426e-07  5.7483e-07  1.3234e-08  8.8002e-07  0:53:38 4988
    13  7.4276e-02  4.9926e-07  5.5366e-07  1.2739e-08  8.4403e-07  0:59:31 4987
    14  6.5693e-02  4.9274e-07  5.2345e-07  1.1202e-08  8.1288e-07  1:04:14 4986
    15  6.0388e-02  4.5127e-07  4.6995e-07  1.0288e-08  7.8844e-07  0:51:22 4985
    16  5.2511e-02  4.6277e-07  4.6690e-07  9.6925e-09  7.6857e-07  0:57:42 4984
    17  4.7516e-02  4.1660e-07  4.0131e-07  9.9722e-09  7.5398e-07  1:02:46 4983
    18  4.2568e-02  4.2737e-07  4.2154e-07  9.3416e-09  7.4290e-07  1:06:48 4982
    19  3.7956e-02  4.0424e-07  3.8768e-07  8.8866e-09  7.3384e-07  0:53:26 4981
    20  3.5713e-02  3.8482e-07  3.7002e-07  8.3232e-09  7.2662e-07  0:59:20 4980
    21  3.2445e-02  3.9370e-07  3.6518e-07  8.2627e-09  7.2091e-07  1:04:04 4979
    22  3.0198e-02  3.5934e-07  3.2491e-07  8.0088e-09  7.1536e-07  0:51:14 4978
  iter  continuity  x-velocity  y-velocity      energy         nut     time/iter
    23  2.8489e-02  3.7016e-07  3.3787e-07  7.9604e-09  7.1058e-07  0:57:34 4977
    24  2.6177e-02  3.5332e-07  3.1110e-07  7.4601e-09  7.0601e-07  1:02:38 4976
    25  2.4753e-02  3.4156e-07  3.0156e-07  6.6786e-09  7.0116e-07  1:06:41 4975
    26  2.3228e-02  3.4519e-07  2.9848e-07  6.3614e-09  6.9693e-07  1:09:55 4974
    27  2.1829e-02  3.2596e-07  2.7401e-07  6.0758e-09  6.9216e-07  0:55:55 4973
    28  2.0483e-02  3.2656e-07  2.7612e-07  5.9305e-09  6.8747e-07  1:01:18 4972
    29  1.9268e-02  3.1578e-07  2.5682e-07  5.8231e-09  6.8226e-07  0:49:02 4971
    30  1.8509e-02  3.1059e-07  2.5177e-07  5.6890e-09  6.7619e-07  0:55:47 4970
    31  1.7554e-02  3.0885e-07  2.4603e-07  5.6766e-09  6.7034e-07  1:01:11 4969
    32  1.6619e-02  2.9750e-07  2.3094e-07  5.5428e-09  6.6423e-07  1:05:30 4968
    33  1.5711e-02  2.9388e-07  2.3103e-07  5.5398e-09  6.5792e-07  0:52:23 4967
  iter  continuity  x-velocity  y-velocity      energy         nut     time/iter
    34  1.5068e-02  2.8669e-07  2.1962e-07  5.3551e-09  6.5152e-07  0:58:27 4966
    35  1.4625e-02  2.8110e-07  2.1769e-07  5.5475e-09  6.4557e-07  1:03:18 4965
    36  1.3822e-02  2.7443e-07  2.1196e-07  5.2933e-09  6.4012e-07  0:50:38 4964
    37  1.3663e-02  2.6864e-07  2.0799e-07  4.7923e-09  6.3512e-07  0:57:02 4963
    38  1.2929e-02  2.6264e-07  2.0520e-07  4.6274e-09  6.3070e-07  1:02:10 4962
    39  1.2944e-02  2.5766e-07  2.0136e-07  4.5345e-09  6.2681e-07  1:06:15 4961
    40  1.2340e-02  2.5109e-07  1.9797e-07  4.4651e-09  6.2348e-07  0:53:00 4960
    41  1.2177e-02  2.4539e-07  1.9453e-07  4.4057e-09  6.2054e-07  0:58:55 4959
    42  1.1913e-02  2.4028e-07  1.9099e-07  4.3639e-09  6.1786e-07  1:03:39 4958
    43  1.1597e-02  2.3511e-07  1.8756e-07  4.2167e-09  6.1508e-07  0:50:55 4957
    44  1.1333e-02  2.2957e-07  1.8256e-07  4.2316e-09  6.1195e-07  0:57:14 4956
  iter  continuity  x-velocity  y-velocity      energy         nut     time/iter
    45  1.1062e-02  2.2522e-07  1.7829e-07  3.8866e-09  6.0846e-07  1:02:18 4955
    46  1.0741e-02  2.2050e-07  1.7274e-07  3.6905e-09  6.0454e-07  0:49:50 4954
    47  1.0431e-02  2.1653e-07  1.6692e-07  3.5248e-09  6.0020e-07  0:56:22 4953
    48  1.0160e-02  2.1284e-07  1.6124e-07  3.4012e-09  5.9553e-07  1:01:35 4952
    49  9.8473e-03  2.0947e-07  1.5515e-07  3.3312e-09  5.9069e-07  0:49:16 4951
    50  9.5565e-03  2.0692e-07  1.4943e-07  3.2875e-09  5.8589e-07  0:55:54 4950
    51  9.2971e-03  2.0456e-07  1.4387e-07  3.2728e-09  5.8123e-07  1:01:13 4949
    52  9.2498e-03  2.0381e-07  1.3952e-07  3.2585e-09  5.7690e-07  1:05:27 4948
    53  8.9785e-03  2.0138e-07  1.3469e-07  3.2571e-09  5.7291e-07  0:52:21 4947
    54  8.7291e-03  1.9973e-07  1.3080e-07  3.2729e-09  5.6931e-07  0:58:21 4946
    55  8.5495e-03  1.9737e-07  1.2771e-07  3.2846e-09  5.6604e-07  0:46:41 4945
  iter  continuity  x-velocity  y-velocity      energy         nut     time/iter
    56  8.2630e-03  1.9527e-07  1.2560e-07  3.2269e-09  5.6309e-07  0:53:49 4944
    57  8.0876e-03  1.9287e-07  1.2453e-07  3.2635e-09  5.6037e-07  0:59:31 4943
    58  7.9239e-03  1.9020e-07  1.2399e-07  3.0386e-09  5.5773e-07  1:04:05 4942
    59  7.6947e-03  1.8760e-07  1.2410e-07  2.8549e-09  5.5511e-07  0:51:15 4941
    60  7.4958e-03  1.8441e-07  1.2441e-07  2.7454e-09  5.5235e-07  0:57:28 4940
    61  7.4797e-03  1.8251e-07  1.2549e-07  2.6672e-09  5.4942e-07  1:02:25 4939
    62  7.2661e-03  1.7875e-07  1.2620e-07  2.6229e-09  5.4626e-07  0:49:56 4938
    63  7.0896e-03  1.7606e-07  1.2723e-07  2.5930e-09  5.4286e-07  0:56:23 4937
    64  6.9862e-03  1.7226e-07  1.2828e-07  2.5885e-09  5.3924e-07  1:01:33 4936
    65  6.8829e-03  1.6932e-07  1.2918e-07  2.5866e-09  5.3543e-07  1:05:41 4935
    66  6.8145e-03  1.6560e-07  1.2992e-07  2.6068e-09  5.3144e-07  0:52:32 4934
  iter  continuity  x-velocity  y-velocity      energy         nut     time/iter
    67  6.7261e-03  1.6269e-07  1.3039e-07  2.5541e-09  5.2739e-07  0:58:28 4933
    68  6.7517e-03  1.5936e-07  1.3054e-07  2.5963e-09  5.2326e-07  1:03:12 4932
    69  6.7656e-03  1.5651e-07  1.3036e-07  2.4435e-09  5.1916e-07  1:06:59 4931
    70  6.7424e-03  1.5372e-07  1.2981e-07  2.3120e-09  5.1508e-07  0:53:35 4930
    71  6.7006e-03  1.5112e-07  1.2898e-07  2.2239e-09  5.1113e-07  0:59:17 4929
    72  6.5419e-03  1.4836e-07  1.2731e-07  2.1802e-09  5.0735e-07  1:03:51 4928
    73  6.5291e-03  1.4641e-07  1.2631e-07  2.1646e-09  5.0366e-07  0:51:04 4927
    74  6.5188e-03  1.4478e-07  1.2464e-07  2.1676e-09  5.0008e-07  0:57:16 4926
    75  6.4696e-03  1.4333e-07  1.2308e-07  2.1695e-09  4.9655e-07  1:02:13 4925
    76  6.3287e-03  1.4152e-07  1.2079e-07  2.2023e-09  4.9321e-07  0:49:46 4924
    77  6.3048e-03  1.4055e-07  1.1951e-07  2.1641e-09  4.9002e-07  0:56:13 4923
  iter  continuity  x-velocity  y-velocity      energy         nut     time/iter
    78  6.2959e-03  1.3983e-07  1.1776e-07  2.1917e-09  4.8697e-07  1:01:22 4922
    79  6.2030e-03  1.3872e-07  1.1638e-07  2.0675e-09  4.8404e-07  0:49:05 4921
    80  6.1502e-03  1.3799e-07  1.1490e-07  1.9693e-09  4.8120e-07  0:55:40 4920
    81  6.0865e-03  1.3702e-07  1.1365e-07  1.8986e-09  4.7843e-07  1:00:55 4919
    82  6.0379e-03  1.3623e-07  1.1234e-07  1.8382e-09  4.7566e-07  0:48:43 4918
    83  5.9176e-03  1.3450e-07  1.1035e-07  1.8266e-09  4.7283e-07  0:55:22 4917
    84  5.9126e-03  1.3430e-07  1.0933e-07  1.8181e-09  4.6995e-07  1:00:40 4916
    85  5.8734e-03  1.3390e-07  1.0776e-07  1.8182e-09  4.6702e-07  0:48:31 4915
    86  5.8198e-03  1.3327e-07  1.0620e-07  1.8345e-09  4.6394e-07  0:55:11 4914
    87  5.7510e-03  1.3320e-07  1.0474e-07  1.7857e-09  4.6076e-07  1:00:31 4913
    88  5.7239e-03  1.3277e-07  1.0276e-07  1.8037e-09  4.5746e-07  1:04:47 4912
  iter  continuity  x-velocity  y-velocity      energy         nut     time/iter
    89  5.6611e-03  1.3255e-07  1.0125e-07  1.6780e-09  4.5403e-07  0:51:49 4911
    90  5.5438e-03  1.3119e-07  9.8737e-08  1.6311e-09  4.5048e-07  0:57:49 4910
    91  5.5554e-03  1.3255e-07  9.7759e-08  1.5493e-09  4.4685e-07  1:02:36 4909
    92  5.3924e-03  1.3069e-07  9.5103e-08  1.5497e-09  4.4321e-07  0:50:04 4908
    93  5.4103e-03  1.3193e-07  9.3714e-08  1.5168e-09  4.3947e-07  0:56:24 4907
    94  5.2346e-03  1.3053e-07  9.1286e-08  1.5537e-09  4.3573e-07  1:01:28 4906
    95  5.2600e-03  1.3150e-07  8.9502e-08  1.5617e-09  4.3192e-07  1:21:52 4905
    96  5.1053e-03  1.3129e-07  8.7772e-08  1.5949e-09  4.2815e-07  1:05:29 4904
    97  5.0214e-03  1.3077e-07  8.5295e-08  1.5661e-09  4.2443e-07  1:08:43 4903
    98  4.9029e-03  1.3105e-07  8.3866e-08  1.5795e-09  4.2075e-07  1:11:18 4902
    99  4.8044e-03  1.3081e-07  8.2035e-08  1.4923e-09  4.1712e-07  0:57:02 4901
  iter  continuity  x-velocity  y-velocity      energy         nut     time/iter
   100  4.6784e-03  1.3054e-07  8.0821e-08  1.4392e-09  4.1354e-07  1:01:57 4900
   101  4.5586e-03  1.3041e-07  8.0185e-08  1.3940e-09  4.0997e-07  1:05:53 4899
   102  4.4558e-03  1.3002e-07  7.9570e-08  1.3718e-09  4.0640e-07  0:52:41 4898
   103  4.3231e-03  1.2978e-07  7.9381e-08  1.3623e-09  4.0284e-07  0:58:28 4897
   104  4.2232e-03  1.2927e-07  7.9239e-08  1.3710e-09  3.9928e-07  1:03:05 4896
   105  4.1796e-03  1.2950e-07  7.9435e-08  1.3762e-09  3.9567e-07  1:06:46 4895
   106  4.0539e-03  1.2850e-07  7.9479e-08  1.3896e-09  3.9204e-07  1:09:43 4894
   107  3.9504e-03  1.2785e-07  7.9489e-08  1.4127e-09  3.8840e-07  0:55:46 4893
   108  3.8562e-03  1.2694e-07  7.9865e-08  1.3873e-09  3.8474e-07  1:00:55 4892
   109  3.8835e-03  1.2650e-07  8.0151e-08  1.4767e-09  3.8106e-07  1:05:01 4891
   110  3.8282e-03  1.2554e-07  8.0230e-08  1.4356e-09  3.7734e-07  1:08:18 4890
  iter  continuity  x-velocity  y-velocity      energy         nut     time/iter
   111  3.7636e-03  1.2440e-07  8.0361e-08  1.3207e-09  3.7358e-07  0:54:38 4889
   112  3.7403e-03  1.2323e-07  8.0366e-08  1.2652e-09  3.6977e-07  1:00:00 4888
   113  3.7074e-03  1.2208e-07  8.0309e-08  1.2621e-09  3.6593e-07  0:47:59 4887
   114  3.7024e-03  1.2078e-07  8.0251e-08  1.2734e-09  3.6203e-07  0:54:40 4886
   115  3.6884e-03  1.1960e-07  8.0041e-08  1.2930e-09  3.5809e-07  1:00:00 4885
   116  3.6722e-03  1.1818e-07  8.0012e-08  1.2644e-09  3.5411e-07  1:04:17 4884
   117  3.6598e-03  1.1684e-07  7.9725e-08  1.2234e-09  3.5009e-07  0:51:25 4883
   118  3.6521e-03  1.1549e-07  7.9584e-08  1.1857e-09  3.4605e-07  0:57:24 4882
   119  3.5823e-03  1.1360e-07  7.8970e-08  1.1600e-09  3.4201e-07  1:02:10 4881
   120  3.6277e-03  1.1252e-07  7.8598e-08  1.2342e-09  3.3794e-07  0:49:44 4880
   121  3.6008e-03  1.1063e-07  7.7869e-08  1.2566e-09  3.3389e-07  0:56:02 4879
  iter  continuity  x-velocity  y-velocity      energy         nut     time/iter
   122  3.5800e-03  1.0952e-07  7.7215e-08  1.2099e-09  3.2985e-07  1:01:05 4878
   123  3.5894e-03  1.0764e-07  7.6326e-08  1.2486e-09  3.2584e-07  0:48:51 4877
   124  3.6419e-03  1.0712e-07  7.5806e-08  1.1576e-09  3.2184e-07  0:55:20 4876
   125  3.6085e-03  1.0587e-07  7.4879e-08  1.0949e-09  3.1788e-07  1:00:30 4875
   126  3.6214e-03  1.0363e-07  7.3478e-08  1.0718e-09  3.1398e-07  0:48:24 4874
   127  3.5888e-03  1.0337e-07  7.2260e-08  1.0462e-09  3.1012e-07  0:54:57 4873
   128  3.6211e-03  1.0154e-07  7.1106e-08  1.0706e-09  3.0632e-07  0:43:57 4872
   129  3.6395e-03  1.0111e-07  7.0190e-08  1.0742e-09  3.0258e-07  0:51:23 4871
   130  3.5879e-03  1.0032e-07  6.8540e-08  1.0822e-09  2.9890e-07  0:57:20 4870
   131  3.6445e-03  9.8314e-08  6.7442e-08  1.1263e-09  2.9530e-07  0:45:52 4869
   132  3.5780e-03  9.8240e-08  6.6225e-08  1.0748e-09  2.9173e-07  0:52:54 4868
  iter  continuity  x-velocity  y-velocity      energy         nut     time/iter
   133  3.6352e-03  9.6273e-08  6.4567e-08  1.0705e-09  2.8827e-07  0:42:19 4867
   134  3.6245e-03  9.6496e-08  6.4495e-08  1.0230e-09  2.8483e-07  0:50:04 4866
   135  3.5259e-03  9.4434e-08  6.3768e-08  1.0266e-09  2.8151e-07  0:56:16 4865
   136  3.5923e-03  9.4433e-08  6.3376e-08  1.0808e-09  2.7826e-07  0:45:00 4864
   137  3.5241e-03  9.2851e-08  6.3879e-08  1.0826e-09  2.7514e-07  0:52:12 4863
   138  3.4867e-03  9.3120e-08  6.4336e-08  9.9471e-10  2.7212e-07  0:57:58 4862
   139  3.5113e-03  9.1398e-08  6.4244e-08  9.7011e-10  2.6924e-07  0:46:22 4861
   140  3.4407e-03  9.2255e-08  6.5379e-08  9.4246e-10  2.6638e-07  0:53:17 4860
   141  3.4823e-03  9.0045e-08  6.5331e-08  9.9329e-10  2.6368e-07  0:58:49 4859
   142  3.4928e-03  9.1414e-08  6.6400e-08  9.6839e-10  2.6096e-07  0:47:02 4858
   143  3.3510e-03  8.8494e-08  6.6441e-08  9.6374e-10  2.5836e-07  0:53:49 4857
  iter  continuity  x-velocity  y-velocity      energy         nut     time/iter
   144  3.4133e-03  8.9103e-08  6.6520e-08  9.7010e-10  2.5578e-07  0:43:03 4856
   145  3.2963e-03  8.7233e-08  6.6801e-08  9.5793e-10  2.5327e-07  0:50:37 4855
   146  3.3070e-03  8.6632e-08  6.6991e-08  8.9820e-10  2.5083e-07  0:56:40 4854
   147  3.2550e-03  8.5965e-08  6.6682e-08  8.3587e-10  2.4842e-07  0:45:19 4853
   148  3.2411e-03  8.4028e-08  6.6442e-08  8.6680e-10  2.4609e-07  0:52:25 4852
   149  3.2021e-03  8.4329e-08  6.6461e-08  8.5526e-10  2.4377e-07  0:58:06 4851
   150  3.3268e-03  8.1724e-08  6.5138e-08  8.7092e-10  2.4153e-07  0:46:28 4850
   151  3.3028e-03  8.3636e-08  6.6179e-08  8.6344e-10  2.3928e-07  0:53:20 4849
   152  3.2729e-03  7.9923e-08  6.4089e-08  8.8596e-10  2.3704e-07  0:58:49 4848
   153  3.2842e-03  8.0775e-08  6.3951e-08  7.9385e-10  2.3474e-07  0:47:03 4847
   154  3.1762e-03  7.7996e-08  6.2181e-08  7.7191e-10  2.3243e-07  0:53:47 4846
  iter  continuity  x-velocity  y-velocity      energy         nut     time/iter
   155  3.2306e-03  7.7998e-08  6.0929e-08  7.9726e-10  2.3007e-07  0:59:10 4845
   156  3.1339e-03  7.7057e-08  6.0211e-08  7.7850e-10  2.2768e-07  0:47:19 4844
   157  3.2970e-03  7.4412e-08  5.8011e-08  8.1598e-10  2.2526e-07  0:54:00 4843
   158  3.2919e-03  7.6630e-08  5.7521e-08  8.1161e-10  2.2283e-07  0:59:20 4842
   159  3.1351e-03  7.3803e-08  5.5654e-08  7.9608e-10  2.2037e-07  0:47:27 4841
   160  3.1672e-03  7.2314e-08  5.2915e-08  7.8965e-10  2.1781e-07  0:54:05 4840
   161  3.2009e-03  7.3953e-08  5.3784e-08  7.3167e-10  2.1522e-07  0:59:23 4839
   162  3.0992e-03  7.2216e-08  5.0827e-08  7.6355e-10  2.1262e-07  0:47:30 4838
   163  3.0111e-03  7.1758e-08  4.9894e-08  7.7086e-10  2.1002e-07  0:54:07 4837
   164  3.0075e-03  7.0740e-08  4.8840e-08  7.7041e-10  2.0738e-07  0:59:24 4836
   165  2.9936e-03  7.1289e-08  4.7100e-08  8.1140e-10  2.0470e-07  0:47:31 4835
  iter  continuity  x-velocity  y-velocity      energy         nut     time/iter
   166  2.8937e-03  7.0832e-08  4.6847e-08  7.7238e-10  2.0204e-07  0:54:07 4834
   167  2.9600e-03  6.8987e-08  4.5939e-08  7.6676e-10  1.9937e-07  0:59:24 4833
   168  2.9663e-03  7.1440e-08  4.5407e-08  7.1455e-10  1.9672e-07  0:47:30 4832
   169  2.8286e-03  6.9319e-08  4.5152e-08  7.2058e-10  1.9411e-07  0:54:06 4831
   170  2.7519e-03  6.8504e-08  4.3391e-08  7.5064e-10  1.9156e-07  0:59:22 4830
   171  2.7126e-03  6.8984e-08  4.4275e-08  7.0947e-10  1.8906e-07  0:47:29 4829
   172  2.7828e-03  6.6898e-08  4.4696e-08  7.6968e-10  1.8660e-07  0:54:05 4828
   173  2.8143e-03  6.9166e-08  4.4045e-08  7.3547e-10  1.8419e-07  0:59:20 4827
   174  2.6793e-03  6.7002e-08  4.5302e-08  6.8031e-10  1.8186e-07  0:47:28 4826
   175  2.6075e-03  6.5770e-08  4.4383e-08  6.6186e-10  1.7962e-07  0:54:03 4825
   176  2.5818e-03  6.6643e-08  4.5227e-08  6.4809e-10  1.7745e-07  0:59:18 4824
  iter  continuity  x-velocity  y-velocity      energy         nut     time/iter
   177  2.6539e-03  6.4402e-08  4.6373e-08  7.0255e-10  1.7535e-07  1:03:31 4823
   178  2.6456e-03  6.6418e-08  4.5795e-08  6.5832e-10  1.7332e-07  0:50:48 4822
   179  2.5818e-03  6.4586e-08  4.7022e-08  6.5043e-10  1.7138e-07  0:56:42 4821
   180  2.5647e-03  6.3364e-08  4.6758e-08  6.1313e-10  1.6954e-07  1:01:25 4820
   181  2.5170e-03  6.4254e-08  4.6579e-08  5.7612e-10  1.6780e-07  0:49:07 4819
   182  2.5686e-03  6.2233e-08  4.7672e-08  5.7962e-10  1.6618e-07  0:55:21 4818
   183  2.5453e-03  6.3188e-08  4.7728e-08  5.4025e-10  1.6461e-07  1:00:20 4817
   184  2.5302e-03  6.1750e-08  4.7455e-08  5.4946e-10  1.6314e-07  0:48:15 4816
   185  2.5302e-03  6.1040e-08  4.8806e-08  5.3976e-10  1.6174e-07  0:54:39 4815
   186  2.4535e-03  6.0559e-08  4.7995e-08  5.5285e-10  1.6043e-07  0:43:42 4814
   187  2.4798e-03  6.0383e-08  4.7874e-08  5.2910e-10  1.5919e-07  0:51:00 4813
  iter  continuity  x-velocity  y-velocity      energy         nut     time/iter
   188  2.4268e-03  5.9138e-08  4.8986e-08  5.0012e-10  1.5802e-07  0:56:50 4812
   189  2.4984e-03  5.8524e-08  4.7810e-08  5.2594e-10  1.5694e-07  0:45:27 4811
   190  2.4410e-03  6.0228e-08  4.8418e-08  4.8319e-10  1.5589e-07  0:52:23 4810
   191  2.4897e-03  5.7635e-08  4.7908e-08  5.1547e-10  1.5491e-07  0:41:54 4809
   192  2.4416e-03  5.9240e-08  4.7062e-08  4.8447e-10  1.5394e-07  0:49:33 4808
   193  2.3587e-03  5.7693e-08  4.6578e-08  4.8655e-10  1.5298e-07  0:55:39 4807
   194  2.3803e-03  5.6861e-08  4.5719e-08  4.9276e-10  1.5198e-07  1:00:32 4806
   195  2.2664e-03  5.7308e-08  4.4588e-08  4.7334e-10  1.5097e-07  1:04:26 4805
   196  2.4286e-03  5.6658e-08  4.3647e-08  5.0243e-10  1.4996e-07  0:51:32 4804
   197  2.3134e-03  5.6958e-08  4.4167e-08  4.8137e-10  1.4895e-07  0:57:14 4803
   198  2.2310e-03  5.5732e-08  4.1921e-08  4.8283e-10  1.4793e-07  0:45:46 4802
  iter  continuity  x-velocity  y-velocity      energy         nut     time/iter
   199  2.2260e-03  5.5401e-08  4.0843e-08  4.8227e-10  1.4690e-07  0:52:37 4801
   200  2.1479e-03  5.5251e-08  4.0216e-08  4.7019e-10  1.4587e-07  0:58:05 4800
   201  2.2546e-03  5.4841e-08  3.9107e-08  5.0473e-10  1.4485e-07  0:46:27 4799
   202  2.1788e-03  5.5915e-08  3.8447e-08  4.7567e-10  1.4386e-07  0:53:09 4798
   203  2.2039e-03  5.4578e-08  3.7517e-08  4.9631e-10  1.4292e-07  0:58:30 4797
   204  2.1470e-03  5.5532e-08  3.6424e-08  4.7655e-10  1.4200e-07  0:46:47 4796
   205  2.1399e-03  5.4736e-08  3.5340e-08  4.8463e-10  1.4110e-07  0:53:25 4795
   206  2.0939e-03  5.5006e-08  3.5248e-08  4.7824e-10  1.4022e-07  0:58:42 4794
   207  2.0895e-03  5.4527e-08  3.3828e-08  4.7591e-10  1.3940e-07  0:46:57 4793
   208  2.0180e-03  5.4778e-08  3.3788e-08  4.6030e-10  1.3863e-07  0:53:31 4792
   209  2.1841e-03  5.3635e-08  3.3176e-08  5.4092e-10  1.3791e-07  0:58:47 4791
  iter  continuity  x-velocity  y-velocity      energy         nut     time/iter
   210  2.1044e-03  5.5482e-08  3.3160e-08  5.1026e-10  1.3722e-07  0:47:01 4790
   211  2.1511e-03  5.3373e-08  3.2140e-08  4.9834e-10  1.3661e-07  0:53:34 4789
   212  2.0967e-03  5.4066e-08  3.2583e-08  4.4860e-10  1.3604e-07  0:58:48 4788
   213  2.0585e-03  5.3233e-08  3.1696e-08  4.4469e-10  1.3551e-07  0:47:02 4787
   214  2.0549e-03  5.2011e-08  3.2098e-08  4.7342e-10  1.3501e-07  0:53:34 4786
   215  1.9842e-03  5.2775e-08  3.1867e-08  4.6760e-10  1.3453e-07  0:58:48 4785
   216  2.1195e-03  5.1639e-08  3.1716e-08  4.7448e-10  1.3410e-07  0:47:02 4784
   217  2.0353e-03  5.1468e-08  3.2414e-08  4.9878e-10  1.3365e-07  0:53:34 4783
   218  1.9905e-03  5.0489e-08  3.1964e-08  4.8005e-10  1.3323e-07  0:42:50 4782
   219  1.9797e-03  4.9851e-08  3.2370e-08  4.4443e-10  1.3282e-07  0:50:12 4781
   220  1.9139e-03  4.9139e-08  3.2363e-08  4.1467e-10  1.3240e-07  0:56:05 4780
  iter  continuity  x-velocity  y-velocity      energy         nut     time/iter
   221  1.9514e-03  4.8818e-08  3.2252e-08  4.1875e-10  1.3197e-07  0:44:52 4779
   222  1.8786e-03  4.8401e-08  3.3163e-08  4.2751e-10  1.3149e-07  0:51:48 4778
   223  1.9489e-03  4.7399e-08  3.3155e-08  4.4850e-10  1.3098e-07  0:57:22 4777
   224  1.8882e-03  4.8648e-08  3.3821e-08  4.6097e-10  1.3039e-07  1:01:48 4776
   225  1.9469e-03  4.6823e-08  3.3743e-08  4.7221e-10  1.2980e-07  0:49:26 4775
   226  1.8695e-03  4.6901e-08  3.3886e-08  4.2657e-10  1.2916e-07  0:55:27 4774
   227  1.8114e-03  4.6512e-08  3.4056e-08  3.9002e-10  1.2849e-07  0:44:21 4773
   228  1.8549e-03  4.5453e-08  3.3794e-08  4.1613e-10  1.2778e-07  0:51:23 4772
   229  1.8102e-03  4.5857e-08  3.4474e-08  4.1459e-10  1.2700e-07  0:57:00 4771
   230  1.8340e-03  4.4559e-08  3.4160e-08  4.1335e-10  1.2618e-07  0:45:35 4770
   231  1.7877e-03  4.4005e-08  3.4244e-08  4.2537e-10  1.2531e-07  0:52:22 4769
  iter  continuity  x-velocity  y-velocity      energy         nut     time/iter
   232  1.7334e-03  4.3628e-08  3.4518e-08  4.0230e-10  1.2440e-07  0:41:53 4768
   233  1.7870e-03  4.2631e-08  3.4016e-08  4.0309e-10  1.2347e-07  0:49:23 4767
   234  1.7492e-03  4.2735e-08  3.5087e-08  3.8359e-10  1.2249e-07  0:55:23 4766
   235  1.7469e-03  4.1346e-08  3.4485e-08  3.8459e-10  1.2146e-07  0:44:18 4765
   236  1.7255e-03  4.0695e-08  3.4674e-08  3.9481e-10  1.2041e-07  0:51:19 4764
   237  1.6869e-03  4.0526e-08  3.5010e-08  3.7344e-10  1.1934e-07  0:56:55 4763
   238  1.7499e-03  3.9145e-08  3.4210e-08  4.0846e-10  1.1824e-07  0:45:32 4762
   239  1.6920e-03  3.9346e-08  3.5270e-08  4.0063e-10  1.1713e-07  0:52:17 4761
   240  1.7412e-03  3.8387e-08  3.4877e-08  3.7387e-10  1.1599e-07  0:57:41 4760
   241  1.7137e-03  3.7514e-08  3.4400e-08  3.4919e-10  1.1486e-07  0:46:08 4759
   242  1.6678e-03  3.7020e-08  3.4935e-08  3.4151e-10  1.1371e-07  0:52:46 4758
  iter  continuity  x-velocity  y-velocity      energy         nut     time/iter
   243  1.7226e-03  3.6166e-08  3.4227e-08  3.4980e-10  1.1258e-07  0:58:03 4757
   244  1.7004e-03  3.5723e-08  3.3914e-08  3.5983e-10  1.1146e-07  0:46:26 4756
   245  1.7302e-03  3.5261e-08  3.4008e-08  3.5501e-10  1.1034e-07  0:52:59 4755
   246  1.7123e-03  3.4286e-08  3.3398e-08  3.4235e-10  1.0926e-07  0:58:14 4754
   247  1.7071e-03  3.3614e-08  3.2478e-08  3.4047e-10  1.0820e-07  0:46:34 4753
   248  1.6692e-03  3.3503e-08  3.2510e-08  3.3292e-10  1.0717e-07  0:53:06 4752
   249  1.7341e-03  3.2863e-08  3.2074e-08  3.3726e-10  1.0613e-07  0:58:18 4751
   250  1.6943e-03  3.2379e-08  3.1232e-08  3.2985e-10  1.0516e-07  0:46:38 4750
   251  1.7116e-03  3.2173e-08  3.0561e-08  3.3731e-10  1.0423e-07  0:53:08 4749
   252  1.6510e-03  3.2231e-08  3.0367e-08  3.2700e-10  1.0333e-07  0:42:30 4748
   253  1.7257e-03  3.1198e-08  2.9533e-08  3.3549e-10  1.0245e-07  0:49:49 4747
  iter  continuity  x-velocity  y-velocity      energy         nut     time/iter
   254  1.6307e-03  3.2583e-08  2.8688e-08  3.2866e-10  1.0161e-07  0:55:40 4746
   255  1.7098e-03  3.1620e-08  2.8223e-08  3.3487e-10  1.0081e-07  0:44:31 4745
   256  1.6312e-03  3.1665e-08  2.7248e-08  3.2494e-10  1.0005e-07  0:51:25 4744
   257  1.6068e-03  3.1491e-08  2.6362e-08  3.2559e-10  9.9337e-08  0:56:56 4743
   258  1.5686e-03  3.1322e-08  2.6148e-08  3.2127e-10  9.8626e-08  0:45:32 4742
   259  1.5977e-03  3.0453e-08  2.5238e-08  3.3211e-10  9.7961e-08  0:52:14 4741
   260  1.5247e-03  3.2204e-08  2.4816e-08  3.2297e-10  9.7310e-08  0:41:46 4740
   261  1.6045e-03  3.0819e-08  2.4550e-08  3.3229e-10  9.6727e-08  0:49:13 4739
   262  1.5105e-03  3.1384e-08  2.3725e-08  3.1782e-10  9.6156e-08  0:55:09 4738
   263  1.5069e-03  3.0622e-08  2.3341e-08  3.2212e-10  9.5605e-08  0:44:07 4737
   264  1.4444e-03  3.0485e-08  2.3367e-08  3.1720e-10  9.5001e-08  0:51:04 4736
  iter  continuity  x-velocity  y-velocity      energy         nut     time/iter
   265  1.4129e-03  3.0055e-08  2.2643e-08  3.1006e-10  9.4404e-08  0:56:38 4735
   266  1.3676e-03  3.0075e-08  2.2625e-08  3.0505e-10  9.3786e-08  0:45:18 4734
   267  1.4159e-03  2.9279e-08  2.2550e-08  3.2193e-10  9.3154e-08  0:52:00 4733
   268  1.3444e-03  2.9948e-08  2.2522e-08  3.0374e-10  9.2490e-08  0:57:22 4732
   269  1.4027e-03  2.8974e-08  2.2286e-08  3.4192e-10  9.1854e-08  0:45:53 4731
   270  1.3230e-03  2.8525e-08  2.2617e-08  3.4031e-10  9.1177e-08  0:52:28 4730
   271  1.3062e-03  2.7803e-08  2.2293e-08  3.0546e-10  9.0519e-08  0:57:44 4729
   272  1.2430e-03  2.7467e-08  2.2590e-08  2.8250e-10  8.9855e-08  0:46:10 4728
   273  1.2919e-03  2.6723e-08  2.2595e-08  2.8366e-10  8.9186e-08  0:52:41 4727
   274  1.2414e-03  2.7080e-08  2.2763e-08  2.7273e-10  8.8500e-08  0:42:08 4726
   275  1.2984e-03  2.5739e-08  2.2723e-08  2.8590e-10  8.7850e-08  0:49:27 4725
  iter  continuity  x-velocity  y-velocity      energy         nut     time/iter
   276  1.2287e-03  2.5516e-08  2.2964e-08  2.8585e-10  8.7181e-08  0:55:18 4724
   277  1.2222e-03  2.4584e-08  2.2860e-08  2.7320e-10  8.6535e-08  0:44:14 4723
   278  1.2207e-03  2.3704e-08  2.3117e-08  2.8614e-10  8.5901e-08  0:51:07 4722
   279  1.1849e-03  2.3234e-08  2.3053e-08  2.7427e-10  8.5267e-08  0:56:37 4721
   280  1.1822e-03  2.3089e-08  2.2893e-08  2.6031e-10  8.4654e-08  0:45:17 4720
   281  1.1975e-03  2.2358e-08  2.3097e-08  2.5757e-10  8.4073e-08  0:51:57 4719
   282  1.1600e-03  2.1730e-08  2.3318e-08  2.5313e-10  8.3498e-08  0:41:33 4718
   283  1.1925e-03  2.1490e-08  2.2753e-08  2.6107e-10  8.2938e-08  0:48:58 4717
   284  1.1203e-03  2.1112e-08  2.3120e-08  2.5331e-10  8.2407e-08  0:54:53 4716
   285  1.2173e-03  2.0913e-08  2.2977e-08  2.6368e-10  8.1900e-08  0:43:54 4715
   286  1.1357e-03  2.0865e-08  2.3184e-08  2.5354e-10  8.1404e-08  0:50:49 4714
  iter  continuity  x-velocity  y-velocity      energy         nut     time/iter
   287  1.1952e-03  2.0242e-08  2.2602e-08  2.4664e-10  8.0937e-08  0:56:21 4713
   288  1.1207e-03  2.0166e-08  2.3078e-08  2.3780e-10  8.0491e-08  0:45:05 4712
   289  1.1251e-03  1.9489e-08  2.2383e-08  2.3629e-10  8.0053e-08  0:51:45 4711
   290  1.0929e-03  1.9417e-08  2.2322e-08  2.4013e-10  7.9649e-08  0:41:24 4710
   291  1.1077e-03  1.9089e-08  2.2231e-08  2.3190e-10  7.9260e-08  0:48:48 4709
   292  1.0402e-03  1.9253e-08  2.1976e-08  2.2482e-10  7.8888e-08  0:54:44 4708
   293  1.1144e-03  1.9246e-08  2.1713e-08  2.2660e-10  7.8549e-08  0:59:28 4707
   294  1.0402e-03  1.9271e-08  2.1840e-08  2.2226e-10  7.8226e-08  0:47:34 4706
   295  1.0962e-03  1.9074e-08  2.1584e-08  2.2413e-10  7.7913e-08  0:53:44 4705
   296  1.0119e-03  1.9398e-08  2.0629e-08  2.1982e-10  7.7614e-08  0:42:58 4704
   297  1.0681e-03  1.9370e-08  2.0487e-08  2.2080e-10  7.7326e-08  0:50:03 4703
  iter  continuity  x-velocity  y-velocity      energy         nut     time/iter
   298  9.6825e-04  1.9527e-08  2.0266e-08  2.1704e-10  7.7046e-08  0:55:42 4702
   299  1.0261e-03  1.9531e-08  2.0087e-08  2.1697e-10  7.6778e-08  0:44:33 4701
   300  9.4704e-04  1.9587e-08  1.9332e-08  2.1486e-10  7.6519e-08  0:51:18 4700
   301  9.9006e-04  1.9567e-08  1.9177e-08  2.1689e-10  7.6286e-08  0:41:02 4699
   302  8.9843e-04  1.9897e-08  1.8864e-08  2.1281e-10  7.6057e-08  0:48:29 4698
   303  9.4010e-04  1.9948e-08  1.8727e-08  2.1094e-10  7.5846e-08  0:38:46 4697
   304  8.8206e-04  1.9859e-08  1.8360e-08  2.0905e-10  7.5643e-08  0:46:40 4696
   305  8.8708e-04  1.9744e-08  1.8255e-08  2.0958e-10  7.5455e-08  0:52:59 4695
   306  8.1871e-04  2.0096e-08  1.8147e-08  2.0635e-10  7.5265e-08  0:42:22 4694
   307  8.6862e-04  2.0106e-08  1.8004e-08  2.0830e-10  7.5092e-08  0:49:32 4693
   308  7.9710e-04  2.0181e-08  1.7881e-08  2.0454e-10  7.4923e-08  0:55:15 4692
  iter  continuity  x-velocity  y-velocity      energy         nut     time/iter
   309  8.2687e-04  2.0041e-08  1.7825e-08  2.0610e-10  7.4767e-08  0:44:12 4691
   310  7.5357e-04  2.0254e-08  1.7791e-08  2.0335e-10  7.4605e-08  0:50:59 4690
   311  8.1016e-04  2.0150e-08  1.7631e-08  2.0236e-10  7.4463e-08  0:40:47 4689
   312  7.2449e-04  2.0235e-08  1.7726e-08  1.9860e-10  7.4316e-08  0:48:15 4688
   313  7.7496e-04  2.0100e-08  1.7615e-08  1.9997e-10  7.4181e-08  0:54:13 4687
   314  6.9134e-04  1.9934e-08  1.7554e-08  1.9663e-10  7.4036e-08  0:43:21 4686
   315  7.4643e-04  1.9803e-08  1.7406e-08  2.1996e-10  7.3902e-08  0:50:18 4685
   316  6.7235e-04  1.9941e-08  1.7582e-08  2.2103e-10  7.3758e-08  0:55:50 4684
   317  7.2849e-04  1.9595e-08  1.7375e-08  2.0925e-10  7.3611e-08  0:44:40 4683
   318  6.5362e-04  1.9783e-08  1.7479e-08  1.8811e-10  7.3456e-08  0:51:20 4682
   319  6.8828e-04  1.9310e-08  1.7316e-08  1.8502e-10  7.3295e-08  0:56:40 4681
  iter  continuity  x-velocity  y-velocity      energy         nut     time/iter
   320  6.3737e-04  1.9565e-08  1.7377e-08  1.8101e-10  7.3129e-08  0:45:19 4680
   321  6.5735e-04  1.9121e-08  1.7242e-08  1.9030e-10  7.2958e-08  0:51:51 4679
   322  6.1750e-04  1.9339e-08  1.7270e-08  1.9293e-10  7.2782e-08  0:41:28 4678
   323  6.4258e-04  1.9107e-08  1.7161e-08  1.9402e-10  7.2601e-08  0:48:45 4677
   324  5.9623e-04  1.9181e-08  1.7191e-08  1.8641e-10  7.2416e-08  0:54:35 4676
   325  6.2133e-04  1.9017e-08  1.7077e-08  2.0051e-10  7.2226e-08  0:59:14 4675
   326  5.8665e-04  1.9052e-08  1.7086e-08  1.9630e-10  7.2028e-08  0:47:23 4674
   327  6.2007e-04  1.8932e-08  1.6966e-08  1.9679e-10  7.1827e-08  0:53:28 4673
   328  5.8460e-04  1.8984e-08  1.6990e-08  1.9169e-10  7.1620e-08  0:42:46 4672
   329  6.2584e-04  1.8809e-08  1.6844e-08  1.9902e-10  7.1410e-08  0:49:47 4671
   330  5.9156e-04  1.8932e-08  1.6853e-08  2.0118e-10  7.1192e-08  0:55:23 4670
  iter  continuity  x-velocity  y-velocity      energy         nut     time/iter
   331  6.3861e-04  1.8686e-08  1.6713e-08  2.0095e-10  7.0971e-08  0:44:18 4669
   332  6.0082e-04  1.8873e-08  1.6685e-08  2.0403e-10  7.0743e-08  0:50:59 4668
   333  6.4360e-04  1.8580e-08  1.6538e-08  2.0786e-10  7.0513e-08  0:56:20 4667
   334  6.0330e-04  1.8615e-08  1.6424e-08  1.9509e-10  7.0273e-08  0:45:04 4666
   335  6.4286e-04  1.8429e-08  1.6338e-08  1.9547e-10  7.0035e-08  0:51:35 4665
   336  6.0269e-04  1.8273e-08  1.6185e-08  1.9116e-10  6.9786e-08  0:41:16 4664
   337  6.3837e-04  1.8109e-08  1.6070e-08  1.9869e-10  6.9538e-08  0:48:33 4663
   338  5.9225e-04  1.8048e-08  1.5974e-08  1.8919e-10  6.9283e-08  0:54:22 4662
   339  6.4192e-04  1.7774e-08  1.5886e-08  1.9090e-10  6.9026e-08  0:59:01 4661
   340  5.8504e-04  1.7858e-08  1.5758e-08  1.8639e-10  6.8760e-08  0:47:13 4660
   341  6.4482e-04  1.7669e-08  1.5744e-08  1.8534e-10  6.8498e-08  0:53:17 4659
  iter  continuity  x-velocity  y-velocity      energy         nut     time/iter
   342  5.7682e-04  1.7434e-08  1.5645e-08  1.8376e-10  6.8229e-08  0:42:37 4658
   343  6.2660e-04  1.7319e-08  1.5625e-08  1.7988e-10  6.7958e-08  0:49:37 4657
   344  5.6924e-04  1.6966e-08  1.5554e-08  1.8008e-10  6.7686e-08  0:39:41 4656
   345  6.0303e-04  1.6876e-08  1.5519e-08  1.7677e-10  6.7414e-08  0:47:15 4655
   346  5.5935e-04  1.6609e-08  1.5507e-08  1.7722e-10  6.7136e-08  0:53:19 4654
   347  6.0282e-04  1.6515e-08  1.5471e-08  1.7824e-10  6.6857e-08  0:42:38 4653
   348  5.5097e-04  1.6392e-08  1.5450e-08  1.7771e-10  6.6575e-08  0:49:37 4652
   349  5.9030e-04  1.6295e-08  1.5415e-08  1.7590e-10  6.6291e-08  0:39:41 4651
   350  5.3684e-04  1.6097e-08  1.5436e-08  1.7570e-10  6.6002e-08  0:47:14 4650
   351  5.8404e-04  1.6012e-08  1.5393e-08  1.7367e-10  6.5713e-08  0:53:17 4649
   352  5.4615e-04  1.5658e-08  1.5279e-08  1.7297e-10  6.5421e-08  0:42:37 4648
  iter  continuity  x-velocity  y-velocity      energy         nut     time/iter
   353  5.7184e-04  1.5561e-08  1.5228e-08  1.7433e-10  6.5129e-08  0:49:34 4647
   354  5.2534e-04  1.5574e-08  1.5210e-08  1.7349e-10  6.4831e-08  0:39:39 4646
   355  5.7023e-04  1.5490e-08  1.5164e-08  1.7120e-10  6.4534e-08  0:47:12 4645
   356  5.3448e-04  1.5028e-08  1.5114e-08  1.7044e-10  6.4232e-08  0:53:14 4644
   357  5.5974e-04  1.4929e-08  1.5041e-08  1.7264e-10  6.3935e-08  0:42:34 4643
   358  5.2337e-04  1.5067e-08  1.4991e-08  1.7127e-10  6.3630e-08  0:49:32 4642
   359  5.6651e-04  1.4971e-08  1.4930e-08  1.6869e-10  6.3322e-08  0:55:05 4641
   360  5.2344e-04  1.4480e-08  1.4894e-08  1.6827e-10  6.3010e-08  0:44:03 4640
   361  5.4762e-04  1.4369e-08  1.4789e-08  1.6835e-10  6.2706e-08  0:50:42 4639
   362  5.0440e-04  1.4412e-08  1.4730e-08  1.6754e-10  6.2394e-08  0:40:33 4638
   363  5.4991e-04  1.4322e-08  1.4656e-08  1.6649e-10  6.2092e-08  0:47:53 4637
  iter  continuity  x-velocity  y-velocity      energy         nut     time/iter
   364  4.9746e-04  1.3935e-08  1.4633e-08  1.6586e-10  6.1783e-08  0:53:45 4636
   365  5.2522e-04  1.3853e-08  1.4542e-08  1.6324e-10  6.1476e-08  0:43:00 4635
   366  4.8526e-04  1.3722e-08  1.4423e-08  1.6326e-10  6.1162e-08  0:49:50 4634
   367  5.1786e-04  1.3647e-08  1.4351e-08  1.6342e-10  6.0854e-08  0:55:18 4633
   368  4.7093e-04  1.3456e-08  1.4352e-08  1.6250e-10  6.0540e-08  0:44:14 4632
   369  5.0483e-04  1.3374e-08  1.4264e-08  1.5904e-10  6.0227e-08  0:50:49 4631
   370  4.6093e-04  1.3190e-08  1.4132e-08  1.5962e-10  5.9908e-08  0:40:39 4630
   371  4.8685e-04  1.3114e-08  1.4056e-08  1.5884e-10  5.9592e-08  0:47:56 4629
   372  4.4412e-04  1.2993e-08  1.4066e-08  1.5792e-10  5.9269e-08  0:53:46 4628
   373  4.8210e-04  1.2914e-08  1.3977e-08  1.5520e-10  5.8944e-08  0:43:00 4627
   374  4.4419e-04  1.2718e-08  1.3878e-08  1.7468e-10  5.8613e-08  0:49:49 4626
  iter  continuity  x-velocity  y-velocity      energy         nut     time/iter
   375  4.7117e-04  1.2668e-08  1.3810e-08  1.7643e-10  5.8283e-08  0:55:16 4625
   376  4.2508e-04  1.2500e-08  1.3797e-08  1.6472e-10  5.7943e-08  0:44:12 4624
   377  4.5222e-04  1.2423e-08  1.3713e-08  1.5132e-10  5.7602e-08  0:50:46 4623
   378  4.1009e-04  1.2298e-08  1.3733e-08  1.4630e-10  5.7254e-08  0:40:36 4622
   379  4.4481e-04  1.2219e-08  1.3667e-08  1.4545e-10  5.6903e-08  0:47:53 4621
   380  3.9998e-04  1.2086e-08  1.3648e-08  1.5020e-10  5.6545e-08  0:53:42 4620
   381  4.3270e-04  1.1989e-08  1.3575e-08  1.5441e-10  5.6179e-08  0:42:57 4619
   382  3.9145e-04  1.1906e-08  1.3601e-08  1.5134e-10  5.5802e-08  0:49:45 4618
   383  4.3027e-04  1.1766e-08  1.3499e-08  1.6688e-10  5.5418e-08  0:55:11 4617
   384  4.0115e-04  1.1760e-08  1.3534e-08  1.6742e-10  5.5026e-08  0:44:08 4616
   385  4.1460e-04  1.1448e-08  1.3373e-08  1.5988e-10  5.4627e-08  0:50:41 4615
  iter  continuity  x-velocity  y-velocity      energy         nut     time/iter
   386  4.0064e-04  1.1644e-08  1.3432e-08  1.4196e-10  5.4219e-08  0:55:55 4614
   387  3.8313e-04  1.1226e-08  1.3172e-08  1.4157e-10  5.3808e-08  1:00:06 4613
   388  3.7737e-04  1.1396e-08  1.3268e-08  1.3733e-10  5.3387e-08  0:48:04 4612
   389  3.8012e-04  1.1077e-08  1.3077e-08  1.4654e-10  5.2961e-08  0:53:49 4611
   390  3.7860e-04  1.1264e-08  1.3172e-08  1.4773e-10  5.2528e-08  0:58:25 4610
   391  3.6133e-04  1.0883e-08  1.2894e-08  1.4764e-10  5.2093e-08  1:02:05 4609
   392  3.6231e-04  1.1051e-08  1.3055e-08  1.5049e-10  5.1651e-08  0:49:39 4608
   393  3.6234e-04  1.0724e-08  1.2850e-08  1.5119e-10  5.1206e-08  0:55:04 4607
   394  3.6035e-04  1.0923e-08  1.3016e-08  1.4242e-10  5.0759e-08  0:44:03 4606
   395  3.4828e-04  1.0552e-08  1.2778e-08  1.4142e-10  5.0314e-08  0:50:35 4605
   396  3.4577e-04  1.0711e-08  1.2916e-08  1.3822e-10  4.9865e-08  0:55:48 4604
  iter  continuity  x-velocity  y-velocity      energy         nut     time/iter
   397  3.5412e-04  1.0382e-08  1.2769e-08  1.4447e-10  4.9419e-08  0:44:38 4603
   398  3.5448e-04  1.0621e-08  1.2867e-08  1.3696e-10  4.8974e-08  0:51:02 4602
   399  3.4427e-04  1.0221e-08  1.2620e-08  1.3682e-10  4.8530e-08  0:56:09 4601
   400  3.4434e-04  1.0403e-08  1.2696e-08  1.4896e-10  4.8088e-08  0:44:55 4600
   401  3.5873e-04  1.0076e-08  1.2632e-08  1.5600e-10  4.7646e-08  0:51:15 4599
   402  3.5576e-04  1.0351e-08  1.2595e-08  1.4316e-10  4.7205e-08  0:56:19 4598
   403  3.4977e-04  9.8783e-09  1.2433e-08  1.3354e-10  4.6768e-08  1:00:22 4597
   404  3.4554e-04  1.0167e-08  1.2403e-08  1.2408e-10  4.6333e-08  0:48:17 4596
   405  3.5704e-04  9.7539e-09  1.2352e-08  1.2753e-10  4.5902e-08  0:53:56 4595
   406  3.5855e-04  1.0103e-08  1.2266e-08  1.2737e-10  4.5475e-08  0:43:08 4594
   407  3.4940e-04  9.6075e-09  1.2084e-08  1.3362e-10  4.5054e-08  0:49:49 4593
  iter  continuity  x-velocity  y-velocity      energy         nut     time/iter
   408  3.3947e-04  9.8488e-09  1.1945e-08  1.2895e-10  4.4639e-08  0:55:09 4592
   409  3.5676e-04  9.6029e-09  1.1972e-08  1.2787e-10  4.4229e-08  0:44:07 4591
   410  3.4239e-04  9.7155e-09  1.1765e-08  1.2486e-10  4.3824e-08  0:50:35 4590
   411  3.5638e-04  9.5281e-09  1.1655e-08  1.2441e-10  4.3427e-08  0:55:45 4589
   412  3.3782e-04  9.4751e-09  1.1599e-08  1.2206e-10  4.3034e-08  0:44:36 4588
   413  3.4810e-04  9.3928e-09  1.1456e-08  1.2021e-10  4.2656e-08  0:50:57 4587
   414  3.3218e-04  9.2801e-09  1.1361e-08  1.2002e-10  4.2284e-08  0:56:03 4586
   415  3.3930e-04  9.1975e-09  1.1253e-08  1.1931e-10  4.1924e-08  1:00:06 4585
   416  3.2544e-04  9.2817e-09  1.1232e-08  1.3293e-10  4.1569e-08  0:48:05 4584
   417  3.5333e-04  9.1953e-09  1.1096e-08  1.3847e-10  4.1229e-08  0:53:44 4583
   418  3.2624e-04  9.1708e-09  1.1084e-08  1.2787e-10  4.0896e-08  0:58:15 4582
  iter  continuity  x-velocity  y-velocity      energy         nut     time/iter
   419  3.3748e-04  9.0975e-09  1.0960e-08  1.1651e-10  4.0574e-08  0:46:35 4581
   420  3.1324e-04  8.9780e-09  1.0903e-08  1.1038e-10  4.0259e-08  0:52:32 4580
   421  3.2754e-04  8.9274e-09  1.0800e-08  1.1142e-10  3.9958e-08  0:42:01 4579
   422  2.9979e-04  8.9433e-09  1.0786e-08  1.1330e-10  3.9664e-08  0:48:52 4578
   423  3.2216e-04  8.8713e-09  1.0704e-08  1.1844e-10  3.9381e-08  0:54:20 4577
   424  2.9363e-04  8.9066e-09  1.0657e-08  1.1446e-10  3.9106e-08  0:43:28 4576
   425  3.1294e-04  8.8433e-09  1.0585e-08  1.1248e-10  3.8844e-08  0:50:01 4575
   426  2.8648e-04  8.8073e-09  1.0530e-08  1.1037e-10  3.8589e-08  0:55:15 4574
   427  3.0456e-04  8.7533e-09  1.0460e-08  1.0905e-10  3.8348e-08  0:44:11 4573
   428  2.7470e-04  8.7378e-09  1.0416e-08  1.0730e-10  3.8113e-08  0:50:35 4572
   429  2.9571e-04  8.6928e-09  1.0367e-08  1.2217e-10  3.7892e-08  0:55:42 4571
  iter  continuity  x-velocity  y-velocity      energy         nut     time/iter
   430  2.7233e-04  8.7985e-09  1.0334e-08  1.2454e-10  3.7678e-08  0:44:33 4570
   431  2.9448e-04  8.7450e-09  1.0284e-08  1.1633e-10  3.7477e-08  0:50:52 4569
   432  2.6679e-04  8.7695e-09  1.0233e-08  1.0644e-10  3.7281e-08  0:40:41 4568
   433  2.8569e-04  8.7179e-09  1.0181e-08  1.0193e-10  3.7096e-08  0:47:46 4567
   434  2.5761e-04  8.7882e-09  1.0121e-08  1.0108e-10  3.6918e-08  0:53:25 4566
   435  2.8012e-04  8.7492e-09  1.0084e-08  1.0356e-10  3.6750e-08  0:42:44 4565
   436  2.5568e-04  8.8223e-09  1.0023e-08  1.0647e-10  3.6588e-08  0:49:23 4564
   437  2.7784e-04  8.7857e-09  9.9881e-09  1.0432e-10  3.6434e-08  0:54:43 4563
   438  2.5440e-04  8.8129e-09  9.9259e-09  1.0195e-10  3.6286e-08  0:43:46 4562
   439  2.7746e-04  8.7579e-09  9.8850e-09  1.0180e-10  3.6143e-08  0:50:12 4561
   440  2.5482e-04  8.8213e-09  9.8043e-09  9.9245e-11  3.6004e-08  0:40:09 4560
  iter  continuity  x-velocity  y-velocity      energy         nut     time/iter
   441  2.7825e-04  8.7150e-09  9.7600e-09  1.0049e-10  3.5873e-08  0:47:19 4559
   442  2.6265e-04  8.8167e-09  9.6759e-09  1.1035e-10  3.5746e-08  0:53:02 4558
   443  2.7612e-04  8.6260e-09  9.5975e-09  1.1439e-10  3.5624e-08  0:57:37 4557
   444  2.6643e-04  8.7841e-09  9.5548e-09  1.0612e-10  3.5504e-08  0:46:05 4556
   445  2.7290e-04  8.5544e-09  9.4694e-09  9.9948e-11  3.5391e-08  0:52:02 4555
   446  2.6651e-04  8.7189e-09  9.5105e-09  9.4631e-11  3.5278e-08  0:41:37 4554
   447  2.6925e-04  8.4248e-09  9.3695e-09  9.6742e-11  3.5170e-08  0:48:28 4553
   448  2.6859e-04  8.6474e-09  9.4959e-09  9.6844e-11  3.5063e-08  0:53:56 4552
   449  2.7178e-04  8.3443e-09  9.3336e-09  1.0205e-10  3.4959e-08  0:43:08 4551
   450  2.7270e-04  8.5717e-09  9.4762e-09  1.0420e-10  3.4855e-08  0:49:40 4550
   451  2.7128e-04  8.2679e-09  9.3018e-09  1.0312e-10  3.4754e-08  0:54:53 4549
  iter  continuity  x-velocity  y-velocity      energy         nut     time/iter
   452  2.6980e-04  8.4376e-09  9.3940e-09  1.0641e-10  3.4650e-08  0:59:04 4548
   453  2.7833e-04  8.2513e-09  9.3197e-09  1.0592e-10  3.4548e-08  0:47:14 4547
   454  2.7156e-04  8.3392e-09  9.2913e-09  1.0135e-10  3.4442e-08  0:52:56 4546
   455  2.7920e-04  8.1753e-09  9.2744e-09  9.9675e-11  3.4339e-08  0:57:29 4545
   456  2.6860e-04  8.2042e-09  9.1374e-09  9.8450e-11  3.4231e-08  0:45:59 4544
   457  2.7613e-04  8.1053e-09  9.1679e-09  1.0110e-10  3.4126e-08  0:51:55 4543
   458  2.6732e-04  8.0371e-09  8.9954e-09  9.6671e-11  3.4019e-08  0:41:32 4542
   459  2.6695e-04  7.9786e-09  8.9352e-09  1.0555e-10  3.3913e-08  0:48:21 4541
   460  2.6695e-04  7.8877e-09  8.9006e-09  1.0907e-10  3.3808e-08  0:53:48 4540
   461  2.6581e-04  7.8693e-09  8.7920e-09  1.0076e-10  3.3702e-08  0:43:02 4539
   462  2.5626e-04  7.8197e-09  8.7231e-09  9.0602e-11  3.3599e-08  0:49:33 4538
  iter  continuity  x-velocity  y-velocity      energy         nut     time/iter
   463  2.6678e-04  7.7498e-09  8.6657e-09  9.1674e-11  3.3501e-08  0:39:38 4537
   464  2.5320e-04  7.7764e-09  8.6056e-09  9.1147e-11  3.3398e-08  0:46:49 4536
   465  2.6411e-04  7.7194e-09  8.5550e-09  9.2319e-11  3.3299e-08  0:37:27 4535
   466  2.4799e-04  7.6241e-09  8.4714e-09  9.4532e-11  3.3201e-08  0:45:04 4534
   467  2.5741e-04  7.5673e-09  8.4090e-09  9.4676e-11  3.3108e-08  0:51:09 4533
   468  2.4358e-04  7.5909e-09  8.3783e-09  9.7694e-11  3.3011e-08  0:40:55 4532
   469  2.5917e-04  7.5448e-09  8.3244e-09  9.4972e-11  3.2916e-08  0:47:50 4531
   470  2.5308e-04  7.3659e-09  8.2192e-09  9.2980e-11  3.2825e-08  0:38:15 4530
   471  2.4280e-04  7.4447e-09  8.2208e-09  8.9739e-11  3.2732e-08  0:45:42 4529
   472  2.5413e-04  7.3784e-09  8.1553e-09  8.9139e-11  3.2642e-08  0:36:33 4528
   473  2.3552e-04  7.3033e-09  8.1422e-09  8.9974e-11  3.2548e-08  0:44:19 4527
  iter  continuity  x-velocity  y-velocity      energy         nut     time/iter
   474  2.4166e-04  7.2301e-09  8.0743e-09  8.6573e-11  3.2456e-08  0:50:32 4526
   475  2.2317e-04  7.2481e-09  8.0654e-09  8.3784e-11  3.2361e-08  0:40:25 4525
   476  2.3872e-04  7.1951e-09  8.0103e-09  8.2770e-11  3.2264e-08  0:47:24 4524
   477  2.2373e-04  7.0559e-09  7.9779e-09  8.1212e-11  3.2162e-08  0:37:55 4523
   478  2.2872e-04  7.0183e-09  7.9088e-09  8.0306e-11  3.2061e-08  0:45:24 4522
   479  2.1537e-04  7.0085e-09  7.9169e-09  8.9234e-11  3.1955e-08  0:51:23 4521
   480  2.3149e-04  6.9797e-09  7.8639e-09  9.1911e-11  3.1848e-08  0:41:06 4520
   481  2.1806e-04  6.8786e-09  7.8213e-09  8.5338e-11  3.1734e-08  0:47:56 4519
   482  2.2327e-04  6.8250e-09  7.7511e-09  7.8619e-11  3.1619e-08  0:38:20 4518
   483  2.0848e-04  6.8335e-09  7.8013e-09  7.5574e-11  3.1499e-08  0:45:43 4517
   484  2.2535e-04  6.7965e-09  7.7411e-09  7.5375e-11  3.1375e-08  0:51:37 4516
  iter  continuity  x-velocity  y-velocity      energy         nut     time/iter
   485  2.0552e-04  6.6840e-09  7.6932e-09  7.7103e-11  3.1244e-08  0:41:17 4515
   486  2.1358e-04  6.6304e-09  7.6337e-09  8.0065e-11  3.1110e-08  0:48:04 4514
   487  2.0176e-04  6.5149e-09  7.6110e-09  7.8358e-11  3.0971e-08  0:38:27 4513
   488  2.1129e-04  6.4991e-09  7.5490e-09  8.2012e-11  3.0828e-08  0:45:47 4512
   489  1.9938e-04  6.5265e-09  7.5652e-09  8.1188e-11  3.0680e-08  0:36:37 4511
   490  2.1307e-04  6.4784e-09  7.5035e-09  7.7874e-11  3.0529e-08  0:44:20 4510
   491  1.9545e-04  6.3781e-09  7.4348e-09  7.6638e-11  3.0376e-08  0:50:29 4509
   492  2.0222e-04  6.3606e-09  7.3666e-09  7.5242e-11  3.0218e-08  0:40:23 4508
   493  1.9028e-04  6.2926e-09  7.3284e-09  7.7412e-11  3.0061e-08  0:47:19 4507
   494  1.9857e-04  6.2706e-09  7.2757e-09  7.4945e-11  2.9898e-08  0:37:51 4506
   495  1.8590e-04  6.2868e-09  7.2636e-09  8.1205e-11  2.9735e-08  0:45:17 4505
  iter  continuity  x-velocity  y-velocity      energy         nut     time/iter
   496  1.9452e-04  6.2674e-09  7.2139e-09  8.4004e-11  2.9568e-08  0:36:13 4504
   497  1.8401e-04  6.1778e-09  7.1860e-09  7.8022e-11  2.9402e-08  0:43:59 4503
   498  1.9077e-04  6.1656e-09  7.1342e-09  7.3069e-11  2.9232e-08  0:50:11 4502
   499  1.7712e-04  6.2334e-09  7.1938e-09  6.9883e-11  2.9064e-08  0:40:08 4501
   500  1.8840e-04  6.1969e-09  7.1482e-09  7.1281e-11  2.8892e-08  0:47:06 4500
   501  1.7379e-04  6.1109e-09  7.0971e-09  7.3407e-11  2.8723e-08  0:52:40 4499
   502  1.8088e-04  6.0859e-09  7.0550e-09  7.6200e-11  2.8550e-08  0:42:08 4498
   503  1.6436e-04  6.0813e-09  7.0560e-09  7.3957e-11  2.8381e-08  0:48:41 4497
   504  1.7652e-04  6.0541e-09  7.0236e-09  7.8192e-11  2.8207e-08  0:53:56 4496
   505  1.6410e-04  5.9843e-09  6.9879e-09  7.6187e-11  2.8036e-08  0:43:08 4495
   506  1.7021e-04  5.9573e-09  6.9480e-09  7.5128e-11  2.7860e-08  0:49:29 4494
  iter  continuity  x-velocity  y-velocity      energy         nut     time/iter
   507  1.5583e-04  5.9327e-09  6.9091e-09  7.2688e-11  2.7687e-08  0:39:34 4493
   508  1.6538e-04  5.9113e-09  6.8823e-09  7.3152e-11  2.7511e-08  0:46:37 4492
   509  1.5361e-04  5.8595e-09  6.8457e-09  7.3384e-11  2.7338e-08  0:52:16 4491
   510  1.6058e-04  5.8324e-09  6.8169e-09  7.2846e-11  2.7164e-08  0:41:48 4490
   511  1.4950e-04  5.8618e-09  6.7639e-09  7.8888e-11  2.6993e-08  0:48:24 4489
   512  1.6191e-04  5.8361e-09  6.7498e-09  8.0428e-11  2.6820e-08  0:53:40 4488
   513  1.4894e-04  5.7750e-09  6.6929e-09  7.4714e-11  2.6649e-08  0:42:55 4487
   514  1.5372e-04  5.7428e-09  6.6659e-09  6.9205e-11  2.6477e-08  0:49:17 4486
   515  1.4157e-04  5.7661e-09  6.6122e-09  6.6827e-11  2.6306e-08  0:39:25 4485
   516  1.5422e-04  5.7382e-09  6.5957e-09  6.7668e-11  2.6133e-08  0:46:29 4484
   517  1.4132e-04  5.6898e-09  6.5751e-09  6.9101e-11  2.5961e-08  0:37:10 4483
  iter  continuity  x-velocity  y-velocity      energy         nut     time/iter
   518  1.5044e-04  5.6686e-09  6.5517e-09  7.1759e-11  2.5788e-08  0:44:40 4482
   519  1.3833e-04  5.6584e-09  6.5363e-09  6.9915e-11  2.5616e-08  0:50:40 4481
   520  1.5035e-04  5.6324e-09  6.5187e-09  7.3210e-11  2.5443e-08  0:40:31 4480
   521  1.3687e-04  5.6364e-09  6.5327e-09  7.2100e-11  2.5270e-08  0:47:20 4479
   522  1.4789e-04  5.6061e-09  6.5089e-09  6.8675e-11  2.5097e-08  0:37:52 4478
   523  1.3523e-04  5.5532e-09  6.5067e-09  6.7147e-11  2.4925e-08  0:45:12 4477
   524  1.4448e-04  5.5297e-09  6.4839e-09  6.6829e-11  2.4750e-08  0:51:05 4476
   525  1.3277e-04  5.5144e-09  6.4956e-09  6.8255e-11  2.4576e-08  0:40:51 4475
   526  1.4491e-04  5.4921e-09  6.4705e-09  6.5794e-11  2.4398e-08  0:47:35 4474
   527  1.3431e-04  5.4424e-09  6.4641e-09  7.1694e-11  2.4221e-08  0:52:58 4473
   528  1.4342e-04  5.4278e-09  6.4373e-09  7.3020e-11  2.4041e-08  0:42:22 4472
  iter  continuity  x-velocity  y-velocity      energy         nut     time/iter
   529  1.3540e-04  5.3893e-09  6.4220e-09  6.7796e-11  2.3864e-08  0:48:47 4471
   530  1.4242e-04  5.3611e-09  6.3949e-09  6.2781e-11  2.3683e-08  0:53:55 4470
   531  1.3121e-04  5.4159e-09  6.4094e-09  6.0969e-11  2.3505e-08  0:43:08 4469
   532  1.4260e-04  5.3973e-09  6.3802e-09  6.0581e-11  2.3323e-08  0:49:23 4468
   533  1.3250e-04  5.3097e-09  6.3571e-09  6.2850e-11  2.3144e-08  0:54:24 4467
   534  1.4033e-04  5.2992e-09  6.3278e-09  6.5225e-11  2.2961e-08  0:43:30 4466
   535  1.2860e-04  5.3277e-09  6.3289e-09  6.3969e-11  2.2783e-08  0:49:41 4465
   536  1.4113e-04  5.3141e-09  6.3009e-09  6.6106e-11  2.2597e-08  0:39:44 4464
   537  1.3516e-04  5.2319e-09  6.2624e-09  6.5800e-11  2.2415e-08  0:46:39 4463
   538  1.3490e-04  5.2329e-09  6.2372e-09  6.2739e-11  2.2233e-08  0:52:11 4462
   539  1.3311e-04  5.2322e-09  6.2024e-09  6.1281e-11  2.2051e-08  0:41:45 4461
  iter  continuity  x-velocity  y-velocity      energy         nut     time/iter
   540  1.3302e-04  5.2199e-09  6.1756e-09  6.1095e-11  2.1871e-08  0:48:15 4460
   541  1.3048e-04  5.2075e-09  6.1509e-09  6.2588e-11  2.1692e-08  0:38:36 4459
   542  1.3242e-04  5.1913e-09  6.1159e-09  6.0687e-11  2.1512e-08  0:45:44 4458
   543  1.2546e-04  5.1989e-09  6.0809e-09  6.6185e-11  2.1335e-08  0:36:34 4457
   544  1.3263e-04  5.1918e-09  6.0566e-09  6.8072e-11  2.1155e-08  0:44:06 4456
   545  1.2484e-04  5.1584e-09  6.0182e-09  6.3140e-11  2.0977e-08  0:50:08 4455
   546  1.2783e-04  5.1461e-09  5.9844e-09  5.8378e-11  2.0796e-08  0:40:06 4454
   547  1.2128e-04  5.1151e-09  5.9385e-09  5.6245e-11  2.0620e-08  0:46:55 4453
   548  1.2601e-04  5.0981e-09  5.9102e-09  5.7178e-11  2.0441e-08  0:37:31 4452
   549  1.1600e-04  5.1001e-09  5.8846e-09  5.9204e-11  2.0266e-08  0:44:51 4451
   550  1.2385e-04  5.0894e-09  5.8605e-09  6.0867e-11  2.0086e-08  0:35:52 4450
  iter  continuity  x-velocity  y-velocity      energy         nut     time/iter
   551  1.1903e-04  5.0122e-09  5.8184e-09  5.9764e-11  1.9910e-08  0:43:31 4449
   552  1.2036e-04  4.9938e-09  5.7961e-09  6.2727e-11  1.9736e-08  0:49:38 4448
   553  1.1392e-04  4.9858e-09  5.7956e-09  6.1389e-11  1.9563e-08  0:39:42 4447
   554  1.2073e-04  4.9673e-09  5.7691e-09  5.9858e-11  1.9387e-08  0:46:34 4446
   555  1.1044e-04  4.9489e-09  5.7742e-09  5.8170e-11  1.9216e-08  0:37:15 4445
   556  1.1524e-04  4.9415e-09  5.7513e-09  5.7470e-11  1.9046e-08  0:44:36 4444
   557  1.1531e-04  4.8617e-09  5.7106e-09  5.9019e-11  1.8875e-08  0:50:29 4443
   558  1.0708e-04  4.8751e-09  5.7002e-09  5.7231e-11  1.8708e-08  0:40:23 4442
   559  1.1581e-04  4.8603e-09  5.6778e-09  6.2634e-11  1.8541e-08  0:47:06 4441
   560  1.0666e-04  4.8540e-09  5.6713e-09  6.3906e-11  1.8379e-08  0:37:40 4440
   561  1.1356e-04  4.8412e-09  5.6476e-09  5.9415e-11  1.8217e-08  0:44:56 4439
  iter  continuity  x-velocity  y-velocity      energy         nut     time/iter
   562  1.0705e-04  4.7739e-09  5.6086e-09  5.4302e-11  1.8059e-08  0:50:44 4438
   563  1.1148e-04  4.7550e-09  5.5801e-09  5.3060e-11  1.7904e-08  0:40:34 4437
   564  1.0343e-04  4.7739e-09  5.5624e-09  5.3330e-11  1.7752e-08  0:47:14 4436
   565  1.1173e-04  4.7606e-09  5.5432e-09  5.4605e-11  1.7601e-08  0:37:47 4435
   566  1.0646e-04  4.6938e-09  5.5077e-09  5.6894e-11  1.7454e-08  0:45:00 4434
   567  1.0962e-04  4.6742e-09  5.4786e-09  5.5757e-11  1.7313e-08  0:35:59 4433
   568  1.0457e-04  4.6740e-09  5.4654e-09  5.8047e-11  1.7175e-08  0:43:34 4432
   569  1.1423e-04  4.6592e-09  5.4407e-09  5.7740e-11  1.7038e-08  0:49:37 4431
   570  1.0643e-04  4.6209e-09  5.4203e-09  5.4897e-11  1.6908e-08  0:39:41 4430
   571  1.1217e-04  4.6031e-09  5.3934e-09  5.4024e-11  1.6782e-08  0:46:30 4429
   572  1.0436e-04  4.5850e-09  5.3677e-09  5.3512e-11  1.6660e-08  0:37:11 4428
  iter  continuity  x-velocity  y-velocity      energy         nut     time/iter
   573  1.1278e-04  4.5660e-09  5.3441e-09  5.4774e-11  1.6543e-08  0:44:30 4427
   574  1.0742e-04  4.5077e-09  5.3139e-09  5.2717e-11  1.6430e-08  0:35:36 4426
   575  1.1070e-04  4.4914e-09  5.2867e-09  5.2208e-11  1.6321e-08  0:43:13 4425
   576  1.0425e-04  4.5072e-09  5.2784e-09  5.1337e-11  1.6218e-08  0:49:19 4424
   577  1.1296e-04  4.4837e-09  5.2534e-09  5.0893e-11  1.6118e-08  0:39:27 4423
   578  1.0798e-04  4.4159e-09  5.2118e-09  5.0289e-11  1.6022e-08  0:46:17 4422
   579  1.0974e-04  4.3945e-09  5.1822e-09  5.0255e-11  1.5933e-08  0:51:45 4421
   580  1.0399e-04  4.3898e-09  5.1656e-09  4.9733e-11  1.5849e-08  0:41:24 4420
   581  1.1211e-04  4.3658e-09  5.1409e-09  4.9815e-11  1.5768e-08  0:47:50 4419
   582  1.0544e-04  4.3124e-09  5.1068e-09  4.9321e-11  1.5691e-08  0:38:16 4418
   583  1.1021e-04  4.2896e-09  5.0800e-09  4.9088e-11  1.5618e-08  0:45:20 4417
  iter  continuity  x-velocity  y-velocity      energy         nut     time/iter
   584  1.0297e-04  4.2690e-09  5.0559e-09  4.8680e-11  1.5552e-08  0:50:58 4416
   585  1.0962e-04  4.2457e-09  5.0325e-09  4.8579e-11  1.5488e-08  0:40:46 4415
   586  1.0431e-04  4.1777e-09  5.0055e-09  4.8196e-11  1.5429e-08  0:47:19 4414
   587  1.0807e-04  4.1510e-09  4.9790e-09  4.7770e-11  1.5372e-08  0:37:51 4413
   588  1.0158e-04  4.1140e-09  4.9587e-09  4.7197e-11  1.5320e-08  0:44:59 4412
   589  1.0596e-04  4.0908e-09  4.9365e-09  4.6865e-11  1.5270e-08  0:50:41 4411
   590  1.0271e-04  4.0333e-09  4.9278e-09  5.2806e-11  1.5225e-08  0:40:32 4410
   591  1.0622e-04  4.0178e-09  4.9091e-09  5.3999e-11  1.5180e-08  0:47:07 4409
   592  1.0389e-04  3.9701e-09  4.8794e-09  4.9949e-11  1.5138e-08  0:37:41 4408
   593  1.0134e-04  3.9328e-09  4.8657e-09  4.5390e-11  1.5099e-08  0:44:50 4407
   594  1.0077e-04  3.8993e-09  4.8463e-09  4.3737e-11  1.5062e-08  0:35:51 4406
  iter  continuity  x-velocity  y-velocity      energy         nut     time/iter
   595  9.6593e-05  3.8740e-09  4.8376e-09  4.3656e-11  1.5027e-08  0:43:22 4405
   596  1.0134e-04  3.8495e-09  4.8134e-09  4.4345e-11  1.4989e-08  0:49:22 4404
   597  9.5398e-05  3.8138e-09  4.7958e-09  4.5940e-11  1.4954e-08  0:39:29 4403
   598  9.7864e-05  3.8015e-09  4.7728e-09  4.4259e-11  1.4915e-08  0:46:15 4402
   599  9.4452e-05  3.7716e-09  4.7486e-09  4.8670e-11  1.4874e-08  0:37:00 4401
   600  9.6164e-05  3.7649e-09  4.7329e-09  5.0067e-11  1.4831e-08  0:44:15 4400
   601  9.3111e-05  3.7358e-09  4.7122e-09  4.6019e-11  1.4787e-08  0:50:03 4399
   602  9.4138e-05  3.7295e-09  4.6806e-09  4.2449e-11  1.4739e-08  0:40:02 4398
   603  8.8128e-05  3.7222e-09  4.6668e-09  4.0601e-11  1.4691e-08  0:46:41 4397
   604  9.1369e-05  3.7162e-09  4.6454e-09  4.0661e-11  1.4640e-08  0:37:20 4396
   605  8.5539e-05  3.7146e-09  4.6407e-09  4.1972e-11  1.4589e-08  0:44:31 4395
  iter  continuity  x-velocity  y-velocity      energy         nut     time/iter
   606  9.0105e-05  3.7073e-09  4.6182e-09  4.3357e-11  1.4534e-08  0:50:15 4394
   607  8.3345e-05  3.7075e-09  4.6176e-09  4.2369e-11  1.4480e-08  0:40:11 4393
   608  8.7403e-05  3.7040e-09  4.5940e-09  4.4513e-11  1.4424e-08  0:46:47 4392
   609  8.3505e-05  3.6799e-09  4.5784e-09  4.3591e-11  1.4367e-08  0:37:25 4391
   610  8.5109e-05  3.6816e-09  4.5499e-09  4.2147e-11  1.4309e-08  0:44:34 4390
   611  7.9922e-05  3.6765e-09  4.5382e-09  4.0820e-11  1.4252e-08  0:50:16 4389
   612  8.3707e-05  3.6693e-09  4.5091e-09  4.1301e-11  1.4191e-08  0:40:12 4388
   613  7.7829e-05  3.6637e-09  4.4832e-09  4.1812e-11  1.4132e-08  0:46:47 4387
   614  8.0835e-05  3.6595e-09  4.4551e-09  4.0853e-11  1.4072e-08  0:37:25 4386
   615  7.6495e-05  3.6586e-09  4.4203e-09  4.4402e-11  1.4013e-08  0:44:33 4385
   616  8.0697e-05  3.6456e-09  4.3928e-09  4.6084e-11  1.3952e-08  0:35:38 4384
  iter  continuity  x-velocity  y-velocity      energy         nut     time/iter
   617  7.4604e-05  3.6479e-09  4.3458e-09  4.2799e-11  1.3892e-08  0:43:06 4383
   618  7.7444e-05  3.6309e-09  4.3157e-09  3.9622e-11  1.3832e-08  0:49:05 4382
   619  7.1457e-05  3.6264e-09  4.2815e-09  3.8030e-11  1.3772e-08  0:39:15 4381
   620  7.7664e-05  3.6089e-09  4.2510e-09  3.9040e-11  1.3711e-08  0:46:00 4380
   621  7.3537e-05  3.5895e-09  4.1952e-09  3.9781e-11  1.3653e-08  0:36:47 4379
   622  7.8360e-05  3.5733e-09  4.1621e-09  4.2023e-11  1.3593e-08  0:44:01 4378
   623  7.2901e-05  3.5757e-09  4.1160e-09  4.0597e-11  1.3535e-08  0:35:12 4377
   624  7.9490e-05  3.5578e-09  4.0863e-09  4.2823e-11  1.3477e-08  0:42:45 4376
   625  7.8086e-05  3.5176e-09  4.0377e-09  4.2389e-11  1.3419e-08  0:48:46 4375
   626  7.7333e-05  3.5060e-09  4.0067e-09  4.0182e-11  1.3363e-08  0:39:01 4374
   627  8.1606e-05  3.4737e-09  3.9729e-09  4.0312e-11  1.3307e-08  0:45:47 4373
  iter  continuity  x-velocity  y-velocity      energy         nut     time/iter
   628  7.6981e-05  3.4969e-09  3.9467e-09  3.9613e-11  1.3252e-08  0:36:37 4372
   629  8.2515e-05  3.4724e-09  3.9159e-09  3.9866e-11  1.3197e-08  0:43:51 4371
   630  8.4337e-05  3.3853e-09  3.8781e-09  3.9763e-11  1.3142e-08  0:49:38 4370
   631  8.2991e-05  3.4398e-09  3.8681e-09  4.2687e-11  1.3088e-08  0:39:42 4369
   632  8.9219e-05  3.4046e-09  3.8364e-09  4.3763e-11  1.3034e-08  0:46:19 4368
   633  8.4919e-05  3.3221e-09  3.8051e-09  4.0409e-11  1.2981e-08  0:51:36 4367
   634  8.3284e-05  3.3076e-09  3.7725e-09  3.6286e-11  1.2929e-08  0:41:16 4366
   635  8.5361e-05  3.2675e-09  3.7429e-09  3.5765e-11  1.2878e-08  0:47:34 4365
   636  8.3108e-05  3.2407e-09  3.7388e-09  3.5478e-11  1.2826e-08  0:38:02 4364
   637  8.6595e-05  3.2121e-09  3.7036e-09  3.5620e-11  1.2775e-08  0:44:58 4363
   638  8.5968e-05  3.1449e-09  3.6772e-09  3.7598e-11  1.2724e-08  0:35:58 4362
  iter  continuity  x-velocity  y-velocity      energy         nut     time/iter
   639  8.2414e-05  3.1394e-09  3.6781e-09  3.6341e-11  1.2672e-08  0:43:18 4361
   640  8.7956e-05  3.1138e-09  3.6451e-09  3.7307e-11  1.2620e-08  0:49:10 4360
   641  8.4411e-05  3.0429e-09  3.6256e-09  3.6534e-11  1.2567e-08  0:39:19 4359
   642  8.3535e-05  3.0115e-09  3.6076e-09  3.4580e-11  1.2514e-08  0:45:59 4358
   643  8.4861e-05  2.9829e-09  3.5812e-09  3.3701e-11  1.2459e-08  0:36:47 4357
   644  7.9443e-05  2.9726e-09  3.5873e-09  3.3350e-11  1.2404e-08  0:43:56 4356
   645  8.4010e-05  2.9506e-09  3.5604e-09  3.3123e-11  1.2346e-08  0:49:39 4355
   646  8.4100e-05  2.8854e-09  3.5310e-09  3.3178e-11  1.2287e-08  0:39:43 4354
   647  8.0627e-05  2.9130e-09  3.5448e-09  3.2049e-11  1.2226e-08  0:46:16 4353
   648  8.6368e-05  2.8964e-09  3.5170e-09  3.2763e-11  1.2162e-08  0:51:31 4352
   649  7.9340e-05  2.8095e-09  3.4845e-09  3.2788e-11  1.2096e-08  0:41:12 4351
  iter  continuity  x-velocity  y-velocity      energy         nut     time/iter
   650  7.9854e-05  2.8019e-09  3.4580e-09  3.1060e-11  1.2023e-08  0:47:27 4350
   651  7.6884e-05  2.7993e-09  3.4293e-09  3.0691e-11  1.1948e-08  0:37:57 4349
   652  7.6311e-05  2.7830e-09  3.4104e-09  3.1113e-11  1.1868e-08  0:44:51 4348
   653  7.4935e-05  2.7714e-09  3.3851e-09  2.9783e-11  1.1785e-08  0:50:22 4347
   654  7.4954e-05  2.7656e-09  3.3547e-09  2.8755e-11  1.1698e-08  0:40:17 4346
   655  7.2431e-05  2.7675e-09  3.3253e-09  3.1836e-11  1.1609e-08  0:46:42 4345
   656  7.3633e-05  2.7663e-09  3.3037e-09  3.2882e-11  1.1515e-08  0:51:50 4344
   657  7.0489e-05  2.7733e-09  3.2775e-09  3.0759e-11  1.1419e-08  0:41:27 4343
   658  6.9512e-05  2.7768e-09  3.2601e-09  2.8031e-11  1.1320e-08  0:47:38 4342
   659  6.9496e-05  2.7689e-09  3.2293e-09  2.6758e-11  1.1219e-08  0:38:06 4341
   660  6.7249e-05  2.7649e-09  3.2060e-09  2.6708e-11  1.1117e-08  0:44:56 4340
  iter  continuity  x-velocity  y-velocity      energy         nut     time/iter
   661  6.9523e-05  2.7576e-09  3.1861e-09  2.7531e-11  1.1010e-08  0:50:24 4339
   662  6.4690e-05  2.7807e-09  3.1738e-09  2.8579e-11  1.0904e-08  0:54:46 4338
   663  6.8792e-05  2.7735e-09  3.1507e-09  2.9949e-11  1.0794e-08  0:43:49 4337
   664  6.7550e-05  2.7517e-09  3.1145e-09  2.9250e-11  1.0682e-08  0:49:30 4336
   665  6.7556e-05  2.7474e-09  3.0920e-09  3.1006e-11  1.0568e-08  0:54:02 4335
   666  6.8269e-05  2.7369e-09  3.0680e-09  3.0778e-11  1.0453e-08  0:57:40 4334
   667  6.6414e-05  2.7329e-09  3.0389e-09  2.9675e-11  1.0336e-08  1:15:00 4333
   668  6.6690e-05  2.7259e-09  3.0159e-09  2.8644e-11  1.0217e-08  1:28:52 4332
   669  6.7912e-05  2.7058e-09  2.9882e-09  2.9072e-11  1.0096e-08  1:39:57 4331
   670  6.6252e-05  2.6985e-09  2.9588e-09  2.9493e-11  9.9747e-09  1:19:57 4330
   671  6.8274e-05  2.6807e-09  2.9341e-09  2.9281e-11  9.8517e-09  1:18:22 4329
  iter  continuity  x-velocity  y-velocity      energy         nut     time/iter
   672  6.4428e-05  2.6739e-09  2.9029e-09  2.8279e-11  9.7294e-09  1:17:07 4328
   673  6.8527e-05  2.6551e-09  2.8803e-09  2.9999e-11  9.6044e-09  1:16:06 4327
   674  6.6912e-05  2.6116e-09  2.8509e-09  2.9697e-11  9.4789e-09  1:00:52 4326
   675  6.5346e-05  2.5999e-09  2.8239e-09  2.8782e-11  9.3536e-09  1:03:06 4325
   676  6.6664e-05  2.5691e-09  2.7979e-09  2.8951e-11  9.2280e-09  0:50:28 4324
   677  6.3027e-05  2.5561e-09  2.7798e-09  2.8821e-11  9.1033e-09  0:54:46 4323
   678  6.6396e-05  2.5351e-09  2.7590e-09  2.7679e-11  8.9777e-09  0:58:13 4322
   679  6.4904e-05  2.4751e-09  2.7452e-09  3.0101e-11  8.8522e-09  0:46:34 4321
   680  6.3987e-05  2.4643e-09  2.7271e-09  3.0632e-11  8.7275e-09  0:51:38 4320
   681  6.6790e-05  2.4331e-09  2.7047e-09  2.8821e-11  8.6041e-09  0:55:42 4319
   682  6.1668e-05  2.4041e-09  2.7075e-09  2.6185e-11  8.4816e-09  0:58:57 4318
  iter  continuity  x-velocity  y-velocity      energy         nut     time/iter
   683  6.5431e-05  2.3824e-09  2.6868e-09  2.4646e-11  8.3595e-09  0:47:09 4317
   684  6.5354e-05  2.3136e-09  2.6710e-09  2.5319e-11  8.2380e-09  0:52:06 4316
   685  6.2565e-05  2.3111e-09  2.6729e-09  2.5599e-11  8.1173e-09  0:41:40 4315
   686  6.6626e-05  2.2888e-09  2.6517e-09  2.6003e-11  7.9991e-09  0:47:42 4314
   687  6.5074e-05  2.2113e-09  2.6398e-09  2.5600e-11  7.8821e-09  0:52:32 4313
   688  6.3060e-05  2.1946e-09  2.6407e-09  2.6506e-11  7.7657e-09  0:42:01 4312
   689  6.6886e-05  2.1725e-09  2.6184e-09  2.5688e-11  7.6521e-09  0:47:58 4311
   690  6.2435e-05  2.1169e-09  2.6113e-09  2.4283e-11  7.5398e-09  0:52:44 4310
   691  6.5478e-05  2.0952e-09  2.5942e-09  2.3500e-11  7.4302e-09  0:42:11 4309
   692  6.4230e-05  2.0427e-09  2.5806e-09  2.3461e-11  7.3222e-09  0:48:06 4308
   693  6.1947e-05  2.0158e-09  2.5753e-09  2.3476e-11  7.2154e-09  0:52:49 4307
  iter  continuity  x-velocity  y-velocity      energy         nut     time/iter
   694  6.4814e-05  1.9961e-09  2.5548e-09  2.2332e-11  7.1123e-09  0:42:15 4306
   695  6.0128e-05  1.9546e-09  2.5511e-09  2.4490e-11  7.0113e-09  0:48:09 4305
   696  6.3040e-05  1.9425e-09  2.5339e-09  2.4839e-11  6.9127e-09  0:52:51 4304
   697  6.2980e-05  1.8996e-09  2.5135e-09  2.3113e-11  6.8173e-09  0:56:37 4303
   698  5.8534e-05  1.8798e-09  2.5135e-09  2.0937e-11  6.7239e-09  0:59:37 4302
   699  6.1173e-05  1.8730e-09  2.4930e-09  1.9552e-11  6.6341e-09  0:47:41 4301
   700  5.9254e-05  1.8419e-09  2.4630e-09  1.9863e-11  6.5476e-09  0:52:28 4300
   701  5.6322e-05  1.8340e-09  2.4551e-09  2.0578e-11  6.4630e-09  0:56:18 4299
   702  5.9517e-05  1.8290e-09  2.4331e-09  2.0070e-11  6.3826e-09  0:45:02 4298
   703  5.4775e-05  1.8280e-09  2.4022e-09  1.9665e-11  6.3049e-09  0:50:20 4297
   704  5.6145e-05  1.8256e-09  2.3811e-09  1.9119e-11  6.2303e-09  0:54:35 4296
  iter  continuity  x-velocity  y-velocity      energy         nut     time/iter
   705  5.3799e-05  1.8158e-09  2.3553e-09  1.8929e-11  6.1591e-09  0:57:58 4295
   706  5.4911e-05  1.8128e-09  2.3315e-09  1.9020e-11  6.0911e-09  0:46:22 4294
   707  5.0372e-05  1.8255e-09  2.3044e-09  1.8993e-11  6.0259e-09  0:51:24 4293
   708  5.2241e-05  1.8247e-09  2.2817e-09  1.8813e-11  5.9637e-09  0:55:25 4292
   709  5.0941e-05  1.8166e-09  2.2463e-09  1.8792e-11  5.9045e-09  0:44:19 4291
   710  4.8701e-05  1.8232e-09  2.2246e-09  1.8705e-11  5.8476e-09  0:49:45 4290
   711  5.1350e-05  1.8187e-09  2.2013e-09  1.9130e-11  5.7937e-09  0:54:05 4289
   712  4.7086e-05  1.8498e-09  2.1877e-09  2.1275e-11  5.7422e-09  0:43:15 4288
   713  5.0434e-05  1.8482e-09  2.1700e-09  2.2249e-11  5.6925e-09  0:48:53 4287
   714  4.7980e-05  1.8165e-09  2.1348e-09  2.0752e-11  5.6444e-09  0:53:23 4286
   715  4.6273e-05  1.8240e-09  2.1104e-09  1.9116e-11  5.5971e-09  0:42:42 4285
  iter  continuity  x-velocity  y-velocity      energy         nut     time/iter
   716  4.5652e-05  1.8184e-09  2.0924e-09  1.8392e-11  5.5511e-09  0:48:26 4284
   717  4.5616e-05  1.8086e-09  2.0714e-09  1.8529e-11  5.5061e-09  0:53:01 4283
   718  4.3781e-05  1.8107e-09  2.0536e-09  1.8846e-11  5.4616e-09  0:42:24 4282
   719  4.6382e-05  1.7955e-09  2.0358e-09  2.0218e-11  5.4165e-09  0:48:11 4281
   720  4.3180e-05  1.8062e-09  2.0125e-09  2.0992e-11  5.3710e-09  0:52:48 4280
   721  4.6196e-05  1.7948e-09  1.9960e-09  2.0369e-11  5.3230e-09  0:42:14 4279
   722  4.4547e-05  1.7636e-09  1.9761e-09  2.1274e-11  5.2738e-09  0:48:02 4278
   723  4.4512e-05  1.7639e-09  1.9536e-09  2.1025e-11  5.2226e-09  0:52:41 4277
   724  4.5129e-05  1.7458e-09  1.9330e-09  2.0289e-11  5.1690e-09  0:42:08 4276
   725  4.3487e-05  1.7398e-09  1.9165e-09  1.9601e-11  5.1142e-09  0:47:57 4275
   726  4.6639e-05  1.7251e-09  1.8996e-09  1.9800e-11  5.0569e-09  0:38:21 4274
  iter  continuity  x-velocity  y-velocity      energy         nut     time/iter
   727  4.3407e-05  1.7185e-09  1.8807e-09  2.0106e-11  4.9990e-09  0:44:55 4273
   728  4.5816e-05  1.7053e-09  1.8656e-09  1.9196e-11  4.9394e-09  0:50:10 4272
   729  4.6830e-05  1.6637e-09  1.8495e-09  2.0649e-11  4.8784e-09  0:40:07 4271
   730  4.4534e-05  1.6802e-09  1.8377e-09  2.0043e-11  4.8173e-09  0:46:19 4270
   731  4.7369e-05  1.6626e-09  1.8221e-09  1.8811e-11  4.7543e-09  0:51:17 4269
   732  4.6640e-05  1.6119e-09  1.8121e-09  1.8662e-11  4.6906e-09  0:41:01 4268
   733  4.5327e-05  1.6114e-09  1.8011e-09  1.8277e-11  4.6270e-09  0:47:02 4267
   734  4.7363e-05  1.5916e-09  1.7848e-09  1.8565e-11  4.5624e-09  0:51:50 4266
   735  4.4377e-05  1.5775e-09  1.7871e-09  1.7772e-11  4.4984e-09  0:41:27 4265
   736  4.7491e-05  1.5604e-09  1.7735e-09  1.7211e-11  4.4341e-09  0:47:22 4264
   737  4.7782e-05  1.5207e-09  1.7562e-09  1.8455e-11  4.3696e-09  0:37:53 4263
  iter  continuity  x-velocity  y-velocity      energy         nut     time/iter
   738  4.5621e-05  1.5372e-09  1.7637e-09  1.8053e-11  4.3059e-09  0:44:31 4262
   739  4.8670e-05  1.5182e-09  1.7484e-09  1.7134e-11  4.2419e-09  0:49:48 4261
   740  4.7293e-05  1.4642e-09  1.7353e-09  1.7131e-11  4.1786e-09  0:39:50 4260
   741  4.5848e-05  1.4579e-09  1.7294e-09  1.7019e-11  4.1166e-09  0:46:03 4259
   742  4.7556e-05  1.4400e-09  1.7135e-09  1.6103e-11  4.0555e-09  0:51:02 4258
   743  4.4989e-05  1.4201e-09  1.7087e-09  1.5582e-11  3.9954e-09  0:40:49 4257
   744  4.7063e-05  1.4018e-09  1.6970e-09  1.7258e-11  3.9360e-09  0:46:50 4256
   745  4.6313e-05  1.3748e-09  1.6849e-09  1.7788e-11  3.8780e-09  0:37:27 4255
   746  4.4250e-05  1.3663e-09  1.6774e-09  1.6256e-11  3.8215e-09  0:44:08 4254
   747  4.6577e-05  1.3503e-09  1.6619e-09  1.4813e-11  3.7657e-09  0:35:18 4253
   748  4.3929e-05  1.3199e-09  1.6547e-09  1.3945e-11  3.7117e-09  0:42:24 4252
  iter  continuity  x-velocity  y-velocity      energy         nut     time/iter
   749  4.5007e-05  1.3048e-09  1.6409e-09  1.3706e-11  3.6591e-09  0:48:05 4251
   750  4.3879e-05  1.2901e-09  1.6243e-09  1.3972e-11  3.6080e-09  0:38:28 4250
   751  4.2850e-05  1.2801e-09  1.6138e-09  1.4389e-11  3.5585e-09  0:44:56 4249
   752  4.3762e-05  1.2681e-09  1.6028e-09  1.4133e-11  3.5106e-09  0:35:56 4248
   753  4.1222e-05  1.2626e-09  1.5967e-09  1.3929e-11  3.4647e-09  0:42:54 4247
   754  4.3302e-05  1.2543e-09  1.5819e-09  1.5160e-11  3.4205e-09  0:48:28 4246
   755  4.2076e-05  1.2476e-09  1.5631e-09  1.5828e-11  3.3784e-09  0:38:46 4245
   756  4.0700e-05  1.2479e-09  1.5521e-09  1.4722e-11  3.3381e-09  0:45:09 4244
   757  4.1332e-05  1.2373e-09  1.5403e-09  1.3297e-11  3.2998e-09  0:36:07 4243
   758  3.9128e-05  1.2371e-09  1.5230e-09  1.2711e-11  3.2637e-09  0:43:01 4242
   759  4.0377e-05  1.2339e-09  1.5081e-09  1.2716e-11  3.2293e-09  0:48:33 4241
  iter  continuity  x-velocity  y-velocity      energy         nut     time/iter
   760  3.7728e-05  1.2380e-09  1.4939e-09  1.3096e-11  3.1971e-09  0:38:50 4240
   761  3.9722e-05  1.2337e-09  1.4811e-09  1.3492e-11  3.1665e-09  0:45:11 4239
   762  3.8823e-05  1.2217e-09  1.4645e-09  1.3335e-11  3.1381e-09  0:36:08 4238
   763  3.8096e-05  1.2261e-09  1.4498e-09  1.4567e-11  3.1116e-09  0:43:02 4237
   764  3.8760e-05  1.2249e-09  1.4361e-09  1.5066e-11  3.0867e-09  0:34:25 4236
   765  3.7962e-05  1.2181e-09  1.4247e-09  1.4023e-11  3.0635e-09  0:41:38 4235
   766  3.7634e-05  1.2154e-09  1.4138e-09  1.2992e-11  3.0416e-09  0:33:18 4234
   767  3.7798e-05  1.2077e-09  1.4056e-09  1.2500e-11  3.0214e-09  0:40:45 4233
   768  3.6975e-05  1.2015e-09  1.3978e-09  1.2642e-11  3.0025e-09  0:32:35 4232
   769  3.8223e-05  1.1949e-09  1.3870e-09  1.3148e-11  2.9845e-09  0:40:10 4231
   770  3.6338e-05  1.1905e-09  1.3826e-09  1.3598e-11  2.9677e-09  0:32:08 4230
  iter  continuity  x-velocity  y-velocity      energy         nut     time/iter
   771  3.8160e-05  1.1842e-09  1.3744e-09  1.3377e-11  2.9521e-09  0:39:48 4229
   772  3.6572e-05  1.1688e-09  1.3707e-09  1.3162e-11  2.9375e-09  0:31:50 4228
   773  3.7975e-05  1.1627e-09  1.3615e-09  1.4669e-11  2.9234e-09  0:39:33 4227
   774  3.6623e-05  1.1564e-09  1.3546e-09  1.5118e-11  2.9102e-09  0:31:38 4226
   775  3.8290e-05  1.1486e-09  1.3462e-09  1.4278e-11  2.8973e-09  0:39:23 4225
   776  3.5781e-05  1.1340e-09  1.3442e-09  1.3049e-11  2.8852e-09  0:45:35 4224
   777  3.6984e-05  1.1270e-09  1.3362e-09  1.2281e-11  2.8733e-09  0:50:32 4223
   778  3.6294e-05  1.1064e-09  1.3261e-09  1.2303e-11  2.8615e-09  0:40:25 4222
   779  3.5796e-05  1.0981e-09  1.3183e-09  1.2490e-11  2.8499e-09  0:46:24 4221
   780  3.6492e-05  1.0855e-09  1.3099e-09  1.3166e-11  2.8379e-09  0:51:10 4220
   781  3.4310e-05  1.0769e-09  1.3081e-09  1.2734e-11  2.8254e-09  0:40:56 4219
  iter  continuity  x-velocity  y-velocity      energy         nut     time/iter
   782  3.6174e-05  1.0686e-09  1.3009e-09  1.3859e-11  2.8117e-09  0:46:48 4218
   783  3.5689e-05  1.0434e-09  1.2939e-09  1.4448e-11  2.7970e-09  0:51:29 4217
   784  3.4309e-05  1.0389e-09  1.2910e-09  1.3216e-11  2.7815e-09  0:41:11 4216
   785  3.5746e-05  1.0285e-09  1.2829e-09  1.2309e-11  2.7653e-09  0:46:59 4215
   786  3.2744e-05  1.0085e-09  1.2832e-09  1.1727e-11  2.7483e-09  0:51:37 4214
   787  3.4215e-05  1.0004e-09  1.2758e-09  1.1598e-11  2.7305e-09  0:41:17 4213
   788  3.4394e-05  9.7248e-10  1.2673e-09  1.2241e-11  2.7118e-09  0:47:04 4212
   789  3.2514e-05  9.7674e-10  1.2733e-09  1.2563e-11  2.6927e-09  0:51:41 4211
   790  3.4213e-05  9.6966e-10  1.2651e-09  1.2029e-11  2.6729e-09  0:55:22 4210
   791  3.3705e-05  9.3150e-10  1.2562e-09  1.2874e-11  2.6523e-09  0:44:17 4209
   792  3.2423e-05  9.3138e-10  1.2592e-09  1.2533e-11  2.6316e-09  0:49:27 4208
  iter  continuity  x-velocity  y-velocity      energy         nut     time/iter
   793  3.3967e-05  9.2377e-10  1.2497e-09  1.1803e-11  2.6105e-09  0:39:33 4207
   794  3.2060e-05  8.9567e-10  1.2431e-09  1.1445e-11  2.5891e-09  0:45:39 4206
   795  3.2474e-05  8.8708e-10  1.2370e-09  1.1323e-11  2.5673e-09  0:50:32 4205
   796  3.3501e-05  8.7161e-10  1.2262e-09  1.1785e-11  2.5450e-09  0:40:25 4204
   797  3.1603e-05  8.8163e-10  1.2334e-09  1.1256e-11  2.5227e-09  0:46:20 4203
   798  3.3600e-05  8.7586e-10  1.2236e-09  1.0698e-11  2.5000e-09  0:51:04 4202
   799  3.1341e-05  8.3817e-10  1.2091e-09  1.1260e-11  2.4772e-09  0:54:51 4201
   800  3.1713e-05  8.3578e-10  1.1991e-09  1.1117e-11  2.4547e-09  0:43:52 4200
   801  3.0316e-05  8.3149e-10  1.1928e-09  1.0691e-11  2.4327e-09  0:49:05 4199
   802  3.1923e-05  8.2543e-10  1.1841e-09  1.0814e-11  2.4107e-09  0:39:15 4198
   803  2.9636e-05  8.1260e-10  1.1806e-09  1.0727e-11  2.3889e-09  0:45:23 4197
  iter  continuity  x-velocity  y-velocity      energy         nut     time/iter
   804  3.0781e-05  8.0983e-10  1.1703e-09  1.0270e-11  2.3669e-09  0:36:18 4196
   805  2.9428e-05  8.0228e-10  1.1557e-09  9.9551e-12  2.3454e-09  0:43:01 4195
   806  2.8325e-05  8.0111e-10  1.1519e-09  9.7477e-12  2.3246e-09  0:34:24 4194
   807  2.9985e-05  7.9705e-10  1.1423e-09  9.7360e-12  2.3039e-09  0:41:30 4193
   808  2.7019e-05  8.0166e-10  1.1342e-09  9.6253e-12  2.2841e-09  0:33:11 4192
   809  2.7881e-05  7.9962e-10  1.1250e-09  9.3751e-12  2.2645e-09  0:40:31 4191
   810  2.8655e-05  7.8944e-10  1.1113e-09  9.7449e-12  2.2455e-09  0:46:22 4190
   811  2.7367e-05  8.1608e-10  1.1146e-09  9.5954e-12  2.2270e-09  0:37:05 4189
   812  2.9090e-05  7.9919e-10  1.1022e-09  9.5554e-12  2.2092e-09  0:43:37 4188
   813  2.6967e-05  8.1405e-10  1.0901e-09  9.3465e-12  2.1925e-09  0:34:53 4187
   814  2.7717e-05  7.9419e-10  1.0785e-09  9.4479e-12  2.1765e-09  0:41:52 4186
  iter  continuity  x-velocity  y-velocity      energy         nut     time/iter
   815  2.6364e-05  8.1284e-10  1.0692e-09  9.2873e-12  2.1615e-09  0:47:26 4185
   816  2.6737e-05  7.8968e-10  1.0567e-09  9.4183e-12  2.1470e-09  0:37:56 4184
   817  2.5848e-05  8.1122e-10  1.0494e-09  9.2256e-12  2.1334e-09  0:44:17 4183
   818  2.5922e-05  7.8322e-10  1.0351e-09  9.4065e-12  2.1206e-09  0:49:21 4182
   819  2.5390e-05  8.0730e-10  1.0314e-09  9.1943e-12  2.1087e-09  0:39:29 4181
   820  2.5256e-05  7.7813e-10  1.0171e-09  9.3774e-12  2.0974e-09  0:45:30 4180
   821  2.4958e-05  8.0095e-10  1.0182e-09  9.1589e-12  2.0869e-09  0:36:24 4179
   822  2.4844e-05  7.7114e-10  1.0036e-09  9.3256e-12  2.0768e-09  0:43:02 4178
   823  2.4531e-05  7.9258e-10  1.0057e-09  9.1430e-12  2.0674e-09  0:48:21 4177
   824  2.4884e-05  7.6570e-10  9.9559e-10  9.2843e-12  2.0585e-09  0:38:40 4176
   825  2.4494e-05  7.8560e-10  9.9468e-10  9.1242e-12  2.0501e-09  0:44:51 4175
  iter  continuity  x-velocity  y-velocity      energy         nut     time/iter
   826  2.4867e-05  7.5654e-10  9.8576e-10  9.2454e-12  2.0421e-09  0:49:47 4174
   827  2.4541e-05  7.7810e-10  9.8341e-10  9.0697e-12  2.0344e-09  0:39:49 4173
   828  2.4922e-05  7.4741e-10  9.7599e-10  9.1971e-12  2.0274e-09  0:45:45 4172
   829  2.4518e-05  7.6805e-10  9.6983e-10  9.0190e-12  2.0203e-09  0:36:35 4171
   830  2.5394e-05  7.4236e-10  9.6815e-10  9.1471e-12  2.0140e-09  0:43:10 4170
   831  2.4648e-05  7.5692e-10  9.5724e-10  8.9629e-12  2.0075e-09  0:48:25 4169
   832  2.5531e-05  7.3217e-10  9.5657e-10  9.0685e-12  2.0017e-09  0:38:44 4168
   833  2.4462e-05  7.4003e-10  9.4291e-10  8.8597e-12  1.9956e-09  0:44:52 4167
   834  2.5649e-05  7.2902e-10  9.4045e-10  8.9474e-12  1.9895e-09  0:49:46 4166
   835  2.4535e-05  7.1380e-10  9.3412e-10  8.7587e-12  1.9836e-09  0:39:48 4165
   836  2.4489e-05  7.0985e-10  9.2604e-10  8.5706e-12  1.9779e-09  0:45:43 4164
  iter  continuity  x-velocity  y-velocity      energy         nut     time/iter
   837  2.5227e-05  6.9624e-10  9.1818e-10  8.7717e-12  1.9720e-09  0:50:27 4163
   838  2.4519e-05  6.9496e-10  9.1738e-10  8.6575e-12  1.9662e-09  0:40:21 4162
   839  2.5170e-05  6.8870e-10  9.1249e-10  8.4810e-12  1.9606e-09  0:46:08 4161
   840  2.5094e-05  6.7136e-10  9.0492e-10  8.4507e-12  1.9552e-09  0:36:54 4160
   841  2.4033e-05  6.7419e-10  9.0338e-10  8.3723e-12  1.9502e-09  0:43:23 4159
   842  2.5344e-05  6.6869e-10  8.9836e-10  9.4377e-12  1.9450e-09  0:34:42 4158
   843  2.5688e-05  6.5029e-10  8.9162e-10  9.8010e-12  1.9398e-09  0:41:36 4157
   844  2.4600e-05  6.5487e-10  8.9309e-10  8.9792e-12  1.9350e-09  0:33:17 4156
   845  2.5001e-05  6.4984e-10  8.8746e-10  8.0635e-12  1.9305e-09  0:40:28 4155
   846  2.5723e-05  6.3036e-10  8.7856e-10  7.8824e-12  1.9265e-09  0:32:22 4154
   847  2.4307e-05  6.3272e-10  8.8099e-10  7.8442e-12  1.9227e-09  0:39:44 4153
  iter  continuity  x-velocity  y-velocity      energy         nut     time/iter
   848  2.4466e-05  6.2932e-10  8.7527e-10  7.8106e-12  1.9193e-09  0:45:37 4152
   849  2.5549e-05  6.1380e-10  8.6577e-10  8.1546e-12  1.9166e-09  0:36:29 4151
   850  2.4049e-05  6.1032e-10  8.6750e-10  7.9014e-12  1.9141e-09  0:43:01 4150
   851  2.4231e-05  6.0859e-10  8.6050e-10  7.5834e-12  1.9119e-09  0:34:24 4149
   852  2.5039e-05  5.9819e-10  8.4961e-10  7.5680e-12  1.9101e-09  0:41:20 4148
   853  2.3465e-05  5.9285e-10  8.5254e-10  7.4424e-12  1.9089e-09  0:33:04 4147
   854  2.3789e-05  5.9197e-10  8.4534e-10  7.2437e-12  1.9080e-09  0:40:16 4146
   855  2.4480e-05  5.8533e-10  8.3363e-10  8.2217e-12  1.9077e-09  0:46:01 4145
   856  2.3087e-05  5.8650e-10  8.3530e-10  8.4182e-12  1.9077e-09  0:36:49 4144
   857  2.3479e-05  5.8751e-10  8.2832e-10  7.7890e-12  1.9078e-09  0:43:15 4143
   858  2.3482e-05  5.7758e-10  8.1821e-10  7.2237e-12  1.9083e-09  0:34:35 4142
[...]
  1180  2.8855e-06  1.4753e-10  1.0228e-10  8.3179e-13  2.1385e-10  0:42:04 3820
  1181  2.9196e-06  1.4720e-10  1.0103e-10  8.5607e-13  2.1263e-10  0:33:39 3819
  1182  2.8132e-06  1.4656e-10  9.9751e-11  8.6729e-13  2.1154e-10  0:39:38 3818
  1183  2.7263e-06  1.4605e-10  9.9523e-11  8.9169e-13  2.1051e-10  0:31:42 3817
  1184  2.8125e-06  1.4564e-10  9.8551e-11  8.7727e-13  2.0952e-10  0:38:04 3816
  1185  2.7658e-06  1.4503e-10  9.7057e-11  9.3756e-13  2.0862e-10  0:43:10 3815
  1186  2.6171e-06  1.4455e-10  9.5970e-11  9.1637e-13  2.0779e-10  0:34:32 3814
  1187  2.6284e-06  1.4390e-10  9.5093e-11  8.5786e-13  2.0701e-10  0:40:19 3813
  1188  2.6185e-06  1.4291e-10  9.4350e-11  8.4865e-13  2.0630e-10  0:44:57 3812
  iter  continuity  x-velocity  y-velocity      energy         nut     time/iter
  1189  2.5281e-06  1.4260e-10  9.3481e-11  8.4461e-13  2.0565e-10  0:35:57 3811
  1190  2.6083e-06  1.4203e-10  9.2459e-11  8.7143e-13  2.0501e-10  0:41:27 3810
  1191  2.5091e-06  1.4107e-10  9.1392e-11  8.4357e-13  2.0441e-10  0:33:09 3809
  1192  2.5310e-06  1.4043e-10  9.0545e-11  9.2074e-13  2.0385e-10  0:39:13 3808
  1193  2.4774e-06  1.3966e-10  8.9908e-11  9.4650e-13  2.0332e-10  0:44:03 3807
  1194  2.4811e-06  1.3898e-10  8.9185e-11  8.7550e-13  2.0282e-10  0:35:14 3806
  1195  2.4216e-06  1.3823e-10  8.8480e-11  8.1290e-13  2.0236e-10  0:40:52 3805
  1196  2.4383e-06  1.3750e-10  8.7775e-11  7.8184e-13  2.0192e-10  0:32:41 3804
  1197  2.4004e-06  1.3667e-10  8.7307e-11  7.8600e-13  2.0151e-10  0:38:49 3803
  1198  2.4642e-06  1.3581e-10  8.6639e-11  8.1513e-13  2.0112e-10  0:31:03 3802
  1199  2.3961e-06  1.3506e-10  8.6658e-11  8.4021e-13  2.0077e-10  0:37:30 3801
  iter  continuity  x-velocity  y-velocity      energy         nut     time/iter
  1200  2.4478e-06  1.3426e-10  8.5984e-11  8.2315e-13  2.0043e-10  0:42:39 3800
  1201  2.4481e-06  1.3328e-10  8.5718e-11  8.6723e-13  2.0011e-10  0:34:07 3799
  1202  2.4604e-06  1.3244e-10  8.5387e-11  8.4935e-13  1.9979e-10  0:39:57 3798
  1203  2.4626e-06  1.3141e-10  8.4923e-11  8.1956e-13  1.9948e-10  0:31:57 3797
  1204  2.4910e-06  1.3035e-10  8.4475e-11  7.9492e-13  1.9918e-10  0:38:12 3796
  1205  2.4753e-06  1.2938e-10  8.4031e-11  7.9710e-13  1.9889e-10  0:43:12 3795
  1206  2.4765e-06  1.2850e-10  8.3602e-11  8.0306e-13  1.9861e-10  0:34:33 3794
  1207  2.5341e-06  1.2735e-10  8.2976e-11  7.8938e-13  1.9831e-10  0:40:17 3793
  1208  2.4812e-06  1.2649e-10  8.2838e-11  8.5795e-13  1.9804e-10  0:44:51 3792
  1209  2.5388e-06  1.2548e-10  8.2250e-11  8.7126e-13  1.9777e-10  0:35:53 3791
  1210  2.5989e-06  1.2393e-10  8.1676e-11  8.2879e-13  1.9748e-10  0:41:20 3790
  iter  continuity  x-velocity  y-velocity      energy         nut     time/iter
  1211  2.4829e-06  1.2346e-10  8.1535e-11  7.5070e-13  1.9722e-10  0:33:03 3789
  1212  2.5024e-06  1.2241e-10  8.0799e-11  7.0666e-13  1.9696e-10  0:39:04 3788
  1213  2.6403e-06  1.2083e-10  7.9953e-11  7.3184e-13  1.9666e-10  0:31:14 3787
  1214  2.5089e-06  1.1999e-10  7.9856e-11  7.5125e-13  1.9636e-10  0:37:36 3786
  1215  2.4808e-06  1.1906e-10  7.9148e-11  7.6418e-13  1.9606e-10  0:42:42 3785
  1216  2.6273e-06  1.1768e-10  7.8308e-11  7.4679e-13  1.9574e-10  0:34:09 3784
  1217  2.5512e-06  1.1613e-10  7.7666e-11  7.8039e-13  1.9541e-10  0:39:55 3783
  1218  2.5208e-06  1.1526e-10  7.6988e-11  7.6498e-13  1.9506e-10  0:31:56 3782
  1219  2.5645e-06  1.1391e-10  7.6160e-11  7.3247e-13  1.9468e-10  0:38:08 3781
  1220  2.5157e-06  1.1255e-10  7.5460e-11  7.1112e-13  1.9429e-10  0:30:30 3780
  1221  2.4263e-06  1.1208e-10  7.5115e-11  6.9876e-13  1.9388e-10  0:37:00 3779
  iter  continuity  x-velocity  y-velocity      energy         nut     time/iter
  1222  2.4908e-06  1.1094e-10  7.4398e-11  7.0169e-13  1.9343e-10  0:42:11 3778
  1223  2.5334e-06  1.0926e-10  7.3605e-11  6.9373e-13  1.9294e-10  0:46:19 3777
  1224  2.4026e-06  1.0911e-10  7.3570e-11  7.2284e-13  1.9244e-10  0:37:03 3776
  1225  2.3705e-06  1.0818e-10  7.2861e-11  6.9771e-13  1.9192e-10  0:42:13 3775
  1226  2.5120e-06  1.0687e-10  7.1999e-11  6.6353e-13  1.9135e-10  0:33:46 3774
  1227  2.4205e-06  1.0527e-10  7.1347e-11  6.5576e-13  1.9077e-10  0:39:35 3773
  1228  2.3212e-06  1.0501e-10  7.0976e-11  6.4952e-13  1.9016e-10  0:44:14 3772
  1229  2.3705e-06  1.0411e-10  7.0206e-11  6.4829e-13  1.8952e-10  0:35:22 3771
  1230  2.4049e-06  1.0290e-10  6.9316e-11  6.2900e-13  1.8885e-10  0:40:51 3770
  1231  2.2898e-06  1.0266e-10  6.8982e-11  6.1616e-13  1.8818e-10  0:32:41 3769
  1232  2.3005e-06  1.0210e-10  6.8326e-11  6.7710e-13  1.8747e-10  0:38:42 3768
  iter  continuity  x-velocity  y-velocity      energy         nut     time/iter
  1233  2.3895e-06  1.0131e-10  6.7660e-11  7.0003e-13  1.8673e-10  0:43:30 3767
  1234  2.2812e-06  1.0135e-10  6.7068e-11  6.5653e-13  1.8600e-10  0:34:48 3766
  1235  2.2368e-06  1.0125e-10  6.6421e-11  5.9559e-13  1.8523e-10  0:40:23 3765
  1236  2.2904e-06  1.0082e-10  6.5813e-11  5.5926e-13  1.8442e-10  0:32:18 3764
  1237  2.2187e-06  1.0049e-10  6.5427e-11  5.6214e-13  1.8360e-10  0:38:22 3763
  1238  2.2113e-06  1.0041e-10  6.4838e-11  5.7301e-13  1.8274e-10  0:43:14 3762
  1239  2.2465e-06  1.0022e-10  6.4256e-11  5.9568e-13  1.8185e-10  0:34:34 3761
  1240  2.2040e-06  1.0015e-10  6.3751e-11  5.8335e-13  1.8095e-10  0:40:11 3760
  1241  2.1988e-06  1.0001e-10  6.3274e-11  5.7047e-13  1.8003e-10  0:32:08 3759
  1242  2.1873e-06  9.9735e-11  6.2853e-11  5.6560e-13  1.7907e-10  0:38:14 3758
  1243  2.1750e-06  9.9444e-11  6.2396e-11  5.6427e-13  1.7808e-10  0:30:35 3757
  iter  continuity  x-velocity  y-velocity      energy         nut     time/iter
  1244  2.1634e-06  9.9167e-11  6.1908e-11  5.6303e-13  1.7708e-10  0:36:59 3756
  1245  2.1806e-06  9.8757e-11  6.1418e-11  5.6194e-13  1.7606e-10  0:29:34 3755
  1246  2.1323e-06  9.8411e-11  6.0974e-11  5.6065e-13  1.7501e-10  0:36:10 3754
  1247  2.1535e-06  9.7978e-11  6.0545e-11  5.5775e-13  1.7392e-10  0:41:26 3753
  1248  2.1140e-06  9.7455e-11  6.0167e-11  5.5891e-13  1.7282e-10  0:33:08 3752
  1249  2.1177e-06  9.7004e-11  5.9768e-11  5.5643e-13  1.7170e-10  0:39:00 3751
  1250  2.1171e-06  9.6381e-11  5.9360e-11  5.5837e-13  1.7056e-10  0:31:12 3750
  1251  2.0660e-06  9.5863e-11  5.8987e-11  5.5534e-13  1.6939e-10  0:37:27 3749
  1252  2.0923e-06  9.5267e-11  5.8638e-11  5.5423e-13  1.6820e-10  0:29:57 3748
  1253  2.0383e-06  9.4502e-11  5.8504e-11  5.5147e-13  1.6701e-10  0:36:27 3747
  1254  2.0889e-06  9.3875e-11  5.8194e-11  5.5446e-13  1.6580e-10  0:41:38 3746
  iter  continuity  x-velocity  y-velocity      energy         nut     time/iter
  1255  2.0284e-06  9.3017e-11  5.8284e-11  6.1771e-13  1.6458e-10  0:33:18 3745
  1256  2.0629e-06  9.2481e-11  5.8018e-11  6.3504e-13  1.6333e-10  0:39:07 3744
  1257  2.0652e-06  9.1300e-11  5.8007e-11  5.9621e-13  1.6208e-10  0:31:17 3743
  1258  2.0189e-06  9.0400e-11  5.8041e-11  5.4928e-13  1.6083e-10  0:37:29 3742
  1259  2.0217e-06  8.9645e-11  5.7854e-11  5.2064e-13  1.5956e-10  0:42:27 3741
  1260  2.0052e-06  8.8619e-11  5.7842e-11  5.2118e-13  1.5827e-10  0:33:57 3740
  1261  1.9882e-06  8.7714e-11  5.7795e-11  5.3332e-13  1.5698e-10  0:39:37 3739
  1262  1.9927e-06  8.6709e-11  5.7722e-11  5.5242e-13  1.5570e-10  0:31:41 3738
  1263  1.9596e-06  8.5722e-11  5.7680e-11  5.3523e-13  1.5439e-10  0:37:48 3737
  1264  1.9972e-06  8.4899e-11  5.7400e-11  5.9372e-13  1.5309e-10  0:42:41 3736
  1265  1.9093e-06  8.3931e-11  5.7806e-11  6.0557e-13  1.5178e-10  0:34:08 3735
  iter  continuity  x-velocity  y-velocity      energy         nut     time/iter
  1266  1.9538e-06  8.3381e-11  5.7391e-11  5.5461e-13  1.5049e-10  0:39:45 3734
  1267  1.9961e-06  8.2106e-11  5.7076e-11  5.3275e-13  1.4919e-10  0:31:48 3733
  1268  1.8749e-06  8.1064e-11  5.7778e-11  5.0705e-13  1.4788e-10  0:37:52 3732
  1269  1.8773e-06  8.0786e-11  5.7310e-11  4.9500e-13  1.4659e-10  0:42:43 3731
  1270  1.9924e-06  7.9920e-11  5.6727e-11  5.1168e-13  1.4533e-10  0:34:10 3730
  1271  1.8690e-06  7.7530e-11  5.7134e-11  5.3620e-13  1.4406e-10  0:39:45 3729
  1272  1.8294e-06  7.7265e-11  5.6679e-11  5.1197e-13  1.4280e-10  0:31:48 3728
  1273  1.9190e-06  7.6685e-11  5.6091e-11  5.3095e-13  1.4157e-10  0:37:51 3727
  1274  1.7924e-06  7.4914e-11  5.6329e-11  5.2086e-13  1.4032e-10  0:42:42 3726
  1275  1.7923e-06  7.4445e-11  5.5837e-11  4.9502e-13  1.3909e-10  0:34:09 3725
  1276  1.8874e-06  7.3879e-11  5.5209e-11  4.8838e-13  1.3786e-10  0:39:43 3724
  iter  continuity  x-velocity  y-velocity      energy         nut     time/iter
  1277  1.7462e-06  7.2612e-11  5.5294e-11  4.8234e-13  1.3664e-10  0:44:11 3723
  1278  1.7304e-06  7.2347e-11  5.4813e-11  4.8356e-13  1.3543e-10  0:35:20 3722
  1279  1.8310e-06  7.1799e-11  5.4138e-11  4.7321e-13  1.3426e-10  0:40:40 3721
  1280  1.7050e-06  7.0448e-11  5.3948e-11  4.5891e-13  1.3309e-10  0:44:55 3720
  1281  1.6986e-06  7.0246e-11  5.3416e-11  4.7486e-13  1.3195e-10  0:35:56 3719
  1282  1.7851e-06  6.9847e-11  5.2696e-11  4.7740e-13  1.3084e-10  0:41:08 3718
  1283  1.6547e-06  6.9017e-11  5.2557e-11  4.6190e-13  1.2976e-10  0:32:54 3717
  1284  1.6521e-06  6.8735e-11  5.2052e-11  4.4932e-13  1.2870e-10  0:38:42 3716
  1285  1.7543e-06  6.8213e-11  5.1331e-11  4.6226e-13  1.2762e-10  0:43:20 3715
  1286  1.6161e-06  6.7828e-11  5.0868e-11  4.3937e-13  1.2658e-10  0:34:39 3714
  1287  1.6029e-06  6.7564e-11  5.0364e-11  4.2503e-13  1.2556e-10  0:40:06 3713
  iter  continuity  x-velocity  y-velocity      energy         nut     time/iter
  1288  1.6857e-06  6.7038e-11  4.9688e-11  4.2929e-13  1.2462e-10  0:32:04 3712
  1289  1.5698e-06  6.6571e-11  4.9286e-11  4.1887e-13  1.2372e-10  0:38:01 3711
  1290  1.5443e-06  6.6342e-11  4.8809e-11  4.1154e-13  1.2286e-10  0:42:46 3710
  1291  1.6126e-06  6.5873e-11  4.8202e-11  4.2769e-13  1.2200e-10  0:34:12 3709
  1292  1.5468e-06  6.5368e-11  4.7559e-11  4.6729e-13  1.2119e-10  0:39:43 3708
  1293  1.5196e-06  6.5114e-11  4.7229e-11  4.7494e-13  1.2040e-10  0:31:46 3707
  1294  1.5547e-06  6.4677e-11  4.6770e-11  4.4157e-13  1.1963e-10  0:37:46 3706
  1295  1.5313e-06  6.4132e-11  4.6310e-11  4.1456e-13  1.1887e-10  0:42:33 3705
  1296  1.4735e-06  6.3870e-11  4.5867e-11  3.9157e-13  1.1816e-10  0:34:02 3704
  1297  1.4938e-06  6.3454e-11  4.5396e-11  3.8844e-13  1.1745e-10  0:39:34 3703
  1298  1.4790e-06  6.2824e-11  4.4977e-11  3.9434e-13  1.1677e-10  0:31:38 3702
  iter  continuity  x-velocity  y-velocity      energy         nut     time/iter
  1299  1.4767e-06  6.2395e-11  4.4647e-11  4.0632e-13  1.1611e-10  0:37:38 3701
  1300  1.4702e-06  6.2001e-11  4.4288e-11  4.2836e-13  1.1548e-10  0:42:26 3700
  1301  1.4503e-06  6.1586e-11  4.3918e-11  4.1524e-13  1.1486e-10  0:33:56 3699
  1302  1.4669e-06  6.1110e-11  4.3517e-11  4.3355e-13  1.1425e-10  0:39:28 3698
  1303  1.4504e-06  6.0609e-11  4.3201e-11  4.2971e-13  1.1367e-10  0:31:34 3697
  1304  1.4665e-06  6.0135e-11  4.2885e-11  4.1164e-13  1.1308e-10  0:37:34 3696
  1305  1.4456e-06  5.9601e-11  4.2668e-11  4.0148e-13  1.1251e-10  0:30:03 3695
  1306  1.4556e-06  5.9120e-11  4.2399e-11  3.9914e-13  1.1194e-10  0:36:21 3694
  1307  1.4358e-06  5.8619e-11  4.2279e-11  4.0900e-13  1.1139e-10  0:41:23 3693
  1308  1.4436e-06  5.8135e-11  4.2079e-11  3.9632e-13  1.1085e-10  0:33:06 3692
  1309  1.4565e-06  5.7538e-11  4.1949e-11  3.9082e-13  1.1032e-10  0:38:46 3691
  iter  continuity  x-velocity  y-velocity      energy         nut     time/iter
  1310  1.4379e-06  5.7053e-11  4.1930e-11  4.2921e-13  1.0981e-10  0:43:18 3690
  1311  1.4785e-06  5.6530e-11  4.1662e-11  4.4922e-13  1.0930e-10  0:34:38 3689
  1312  1.4691e-06  5.5850e-11  4.1588e-11  4.1531e-13  1.0881e-10  0:40:00 3688
  1313  1.4609e-06  5.5293e-11  4.1373e-11  3.7953e-13  1.0833e-10  0:31:59 3687
  1314  1.4592e-06  5.4693e-11  4.1144e-11  3.5861e-13  1.0787e-10  0:37:52 3686
  1315  1.4607e-06  5.4060e-11  4.0959e-11  3.6048e-13  1.0744e-10  0:30:17 3685
  1316  1.4657e-06  5.3470e-11  4.0744e-11  3.7067e-13  1.0702e-10  0:36:30 3684
  1317  1.4633e-06  5.2855e-11  4.0601e-11  3.8205e-13  1.0663e-10  0:41:28 3683
  1318  1.4584e-06  5.2263e-11  4.0396e-11  3.7170e-13  1.0626e-10  0:33:10 3682
  1319  1.4721e-06  5.1622e-11  4.0152e-11  3.9160e-13  1.0593e-10  0:38:48 3681
  1320  1.4489e-06  5.1076e-11  4.0034e-11  3.8257e-13  1.0562e-10  0:31:02 3680
  iter  continuity  x-velocity  y-velocity      energy         nut     time/iter
  1321  1.4638e-06  5.0478e-11  3.9707e-11  3.6576e-13  1.0534e-10  0:37:05 3679
  1322  1.4728e-06  4.9704e-11  3.9393e-11  3.5822e-13  1.0509e-10  0:29:39 3678
  1323  1.4426e-06  4.9169e-11  3.9167e-11  3.5585e-13  1.0487e-10  0:35:59 3677
  1324  1.4442e-06  4.8626e-11  3.8837e-11  3.5622e-13  1.0469e-10  0:41:02 3676
  1325  1.4555e-06  4.7914e-11  3.8472e-11  3.4815e-13  1.0454e-10  0:32:49 3675
  1326  1.4394e-06  4.7409e-11  3.8207e-11  3.7906e-13  1.0444e-10  0:38:29 3674
  1327  1.4295e-06  4.6937e-11  3.7925e-11  3.8374e-13  1.0438e-10  0:43:02 3673
  1328  1.4467e-06  4.6293e-11  3.7572e-11  3.5657e-13  1.0436e-10  0:34:25 3672
  1329  1.4152e-06  4.5684e-11  3.7323e-11  3.2535e-13  1.0438e-10  0:39:45 3671
  1330  1.4002e-06  4.5204e-11  3.7023e-11  3.0885e-13  1.0441e-10  0:31:48 3670
  1331  1.4118e-06  4.4644e-11  3.6686e-11  3.1332e-13  1.0449e-10  0:37:40 3669
  iter  continuity  x-velocity  y-velocity      energy         nut     time/iter
  1332  1.3668e-06  4.4317e-11  3.6541e-11  3.2133e-13  1.0457e-10  0:30:07 3668
  1333  1.3625e-06  4.3900e-11  3.6207e-11  3.2882e-13  1.0467e-10  0:36:19 3667
  1334  1.4059e-06  4.3363e-11  3.5824e-11  3.2064e-13  1.0481e-10  0:41:16 3666
  1335  1.3622e-06  4.2925e-11  3.5634e-11  3.3799e-13  1.0496e-10  0:33:00 3665
  1336  1.3458e-06  4.2616e-11  3.5320e-11  3.2817e-13  1.0510e-10  0:38:36 3664
  1337  1.3727e-06  4.2217e-11  3.4949e-11  3.1377e-13  1.0529e-10  0:30:53 3663
  1338  1.3309e-06  4.1978e-11  3.4681e-11  3.0511e-13  1.0548e-10  0:36:54 3662
  1339  1.3254e-06  4.1784e-11  3.4350e-11  2.9688e-13  1.0567e-10  0:41:43 3661
  1340  1.3425e-06  4.1526e-11  3.4007e-11  3.0236e-13  1.0589e-10  0:33:22 3660
  1341  1.3018e-06  4.1484e-11  3.3783e-11  2.9352e-13  1.0611e-10  0:38:53 3659
  1342  1.3074e-06  4.1350e-11  3.3464e-11  3.0409e-13  1.0633e-10  0:43:17 3658
  iter  continuity  x-velocity  y-velocity      energy         nut     time/iter
  1343  1.3022e-06  4.1237e-11  3.3175e-11  3.0159e-13  1.0657e-10  0:34:37 3657
  1344  1.2518e-06  4.1376e-11  3.2977e-11  2.9290e-13  1.0678e-10  0:39:53 3656
  1345  1.2593e-06  4.1256e-11  3.2677e-11  2.8246e-13  1.0700e-10  0:31:54 3655
  1346  1.2877e-06  4.1035e-11  3.2396e-11  2.8608e-13  1.0722e-10  0:37:41 3654
  1347  1.2230e-06  4.1132e-11  3.2279e-11  2.9356e-13  1.0743e-10  0:30:08 3653
  1348  1.2068e-06  4.1060e-11  3.1987e-11  2.8347e-13  1.0763e-10  0:36:17 3652
  1349  1.2553e-06  4.0816e-11  3.1704e-11  3.1133e-13  1.0783e-10  0:29:01 3651
  1350  1.2300e-06  4.0502e-11  3.1493e-11  3.2177e-13  1.0801e-10  0:35:22 3650
  1351  1.2014e-06  4.0415e-11  3.1241e-11  2.9982e-13  1.0818e-10  0:40:27 3649
  1352  1.2010e-06  4.0184e-11  3.1011e-11  2.7365e-13  1.0834e-10  0:32:21 3648
  1353  1.1890e-06  3.9887e-11  3.0782e-11  2.6818e-13  1.0847e-10  0:38:02 3647
  iter  continuity  x-velocity  y-velocity      energy         nut     time/iter
  1354  1.1484e-06  3.9758e-11  3.0556e-11  2.7114e-13  1.0858e-10  0:30:25 3646
  1355  1.1701e-06  3.9521e-11  3.0311e-11  2.7712e-13  1.0866e-10  0:36:29 3645
  1356  1.1751e-06  3.9113e-11  3.0087e-11  2.9208e-13  1.0871e-10  0:29:10 3644
  1357  1.1406e-06  3.8794e-11  2.9898e-11  2.8458e-13  1.0873e-10  0:35:29 3643
  1358  1.1606e-06  3.8501e-11  2.9658e-11  2.7996e-13  1.0872e-10  0:40:31 3642
  1359  1.1385e-06  3.8096e-11  2.9453e-11  2.9547e-13  1.0867e-10  0:32:24 3641
  1360  1.1303e-06  3.7824e-11  2.9256e-11  2.9333e-13  1.0860e-10  0:38:03 3640
  1361  1.1342e-06  3.7428e-11  2.9073e-11  2.8687e-13  1.0850e-10  0:42:34 3639
  1362  1.1065e-06  3.7010e-11  2.8923e-11  2.8437e-13  1.0837e-10  0:34:02 3638
  1363  1.1195e-06  3.6645e-11  2.8735e-11  2.8469e-13  1.0821e-10  0:39:21 3637
  1364  1.1021e-06  3.6149e-11  2.8637e-11  2.9468e-13  1.0802e-10  0:31:28 3636
  iter  continuity  x-velocity  y-velocity      energy         nut     time/iter
  1365  1.0995e-06  3.5747e-11  2.8540e-11  2.8499e-13  1.0781e-10  0:37:17 3635
  1366  1.0831e-06  3.5295e-11  2.8555e-11  2.9803e-13  1.0758e-10  0:41:56 3634
  1367  1.0997e-06  3.4905e-11  2.8421e-11  2.9504e-13  1.0733e-10  0:33:32 3633
  1368  1.0691e-06  3.4294e-11  2.8442e-11  2.8063e-13  1.0706e-10  0:38:56 3632
  1369  1.0872e-06  3.3923e-11  2.8280e-11  2.7151e-13  1.0677e-10  0:43:14 3631
  1370  1.0574e-06  3.3259e-11  2.8335e-11  2.6896e-13  1.0647e-10  0:34:35 3630
  1371  1.0741e-06  3.2892e-11  2.8174e-11  2.7543e-13  1.0614e-10  0:39:45 3629
  1372  1.0391e-06  3.2253e-11  2.8201e-11  2.6552e-13  1.0580e-10  0:31:48 3628
  1373  1.0588e-06  3.1898e-11  2.8028e-11  2.7605e-13  1.0543e-10  0:37:31 3627
  1374  1.0288e-06  3.1260e-11  2.8047e-11  2.7102e-13  1.0505e-10  0:30:00 3626
  1375  1.0445e-06  3.0883e-11  2.7859e-11  2.5799e-13  1.0464e-10  0:36:05 3625
  iter  continuity  x-velocity  y-velocity      energy         nut     time/iter
  1376  1.0143e-06  3.0229e-11  2.7843e-11  2.4989e-13  1.0423e-10  0:40:56 3624
  1377  1.0258e-06  2.9879e-11  2.7641e-11  2.4950e-13  1.0380e-10  0:32:44 3623
! 1378 solution is converged
  1378  9.8147e-07  2.9309e-11  2.7690e-11  2.5288e-13  1.0335e-10  0:38:16 3622
Writing "| gzip -2cf > SolutionMonitor.gz"...
Writing temporary file C:\\Users\\emellusi\\AppData\\Local\\Temp\\flntgz-8642 ...
Done.

Writing data to \\\\winfiles.wincoe.coe.neu.edu\\cifs.homedir\\Win10Files\\Documents\\Newest Ansys project\\March 31 Stage 1 Rocket Body Front\\Stage 1 Front_files\\dp0\\FFF\\Fluent\\FFF.ip ...
	x-coord
	y-coord
	pressure
	x-velocity
	y-velocity
	temperature
	nut
Done.
(cx-gui-do cx-set-list-tree-selections "NavigationPane*List_Tree1" (list ))
(cx-gui-do cx-set-list-tree-selections "NavigationPane*List_Tree1" (list ))
Writing "| gzip -2cf > FFF-1.cas.gz"...
Writing temporary file C:\\Users\\emellusi\\AppData\\Local\\Temp\\flntgz-8643 ...
  319038 mixed cells, zone  2, binary.
  319038 cell partition ids, zone  2, 4 partitions, binary.
  635479 2D interior faces, zone  1, binary.
     999 2D interior faces, zone 18, binary.
    1255 2D wall faces, zone  6, binary.
      95 2D axis faces, zone  7, binary.
    1529 2D pressure-far-field faces, zone  8, binary.
     200 2D pressure-far-field faces, zone  9, binary.
  320520 nodes, binary.
  320520 node flags, binary.
Done.


Performance Timer for 1378 iterations on 4 compute nodes
  Average wall-clock time per iteration:              0.567 sec
  Global reductions per iteration:                       83 ops
  Global reductions time per iteration:               0.000 sec (0.0%)
  Message count per iteration:                         4427 messages
  Data transfer per iteration:                        4.495 MB
  LE solves per iteration:                                5 solves
  LE wall-clock time per iteration:                   0.236 sec (41.6%)
  LE global solves per iteration:                        10 solves
  LE global wall-clock time per iteration:            0.004 sec (0.6%)
  LE global matrix maximum size:                        29
  AMG cycles per iteration:                          13.026 cycles
  Relaxation sweeps per iteration:                      675 sweeps
  Relaxation exchanges per iteration:                     0 exchanges

  Total wall-clock time:                            780.860 sec

